
  EPA STORM WATER MANAGEMENT MODEL - VERSION 5.1 (Build 5.3.0.dev0)
  --------------------------------------------------------------

  
  *********************************************************
  NOTE: The summary statistics displayed in this report are
  based on results found at every computational time step,  
  not just on results from each reporting time step.
  *********************************************************
  
  ****************
  Analysis Options
  ****************
  Flow Units ............... CMS
  Process Models:
    Rainfall/Runoff ........ YES
    RDII ................... NO
    Snowmelt ............... NO
    Groundwater ............ NO
    Flow Routing ........... YES
    Ponding Allowed ........ YES
    Water Quality .......... NO
  Infiltration Method ...... HORTON
  Flow Routing Method ...... DYNWAVE
  Surcharge Method ......... EXTRAN
  Starting Date ............ 08/28/2015 08:00:00
  Ending Date .............. 08/28/2015 15:50:00
  Antecedent Dry Days ...... 0.0
  Report Time Step ......... 00:01:00
  Wet Time Step ............ 00:01:00
  Dry Time Step ............ 00:01:00
  Routing Time Step ........ 5.00 sec
  Variable Time Step ....... YES
  Maximum Trials ........... 8
  Number of Threads ........ 1
  Head Tolerance ........... 0.001500 m
  
  
  **************************        Volume         Depth
  Runoff Quantity Continuity     hectare-m            mm
  **************************     ---------       -------
  Total Precipitation ......         0.740         4.105
  Evaporation Loss .........         0.000         0.000
  Infiltration Loss ........         0.000         0.000
  Surface Runoff ...........         0.717         3.978
  Final Storage ............         0.023         0.127
  Continuity Error (%) .....        -0.009
  
  
  **************************        Volume        Volume
  Flow Routing Continuity        hectare-m      10^6 ltr
  **************************     ---------     ---------
  Dry Weather Inflow .......         0.396         3.955
  Wet Weather Inflow .......         0.717         7.168
  Groundwater Inflow .......         0.000         0.000
  RDII Inflow ..............         0.000         0.000
  External Inflow ..........         0.000         0.000
  External Outflow .........         0.438         4.381
  Flooding Loss ............         0.015         0.148
  Evaporation Loss .........         0.000         0.000
  Exfiltration Loss ........         0.000         0.000
  Initial Stored Volume ....         0.000         0.000
  Final Stored Volume ......         0.536         5.364
  Continuity Error (%) .....        11.065
  
  
  *************************
  Highest Continuity Errors
  *************************
  Node T2 (37.88%)
  Node T6 (28.98%)
  Node T4 (24.98%)
  Node T3 (23.25%)
  Node T5 (22.63%)
  
  
  ***************************
  Time-Step Critical Elements
  ***************************
  None
  
  
  ********************************
  Highest Flow Instability Indexes
  ********************************
  All links are stable.
  
  
  *************************
  Routing Time Step Summary
  *************************
  Minimum Time Step           :     4.50 sec
  Average Time Step           :     5.00 sec
  Maximum Time Step           :     5.00 sec
  Percent in Steady State     :     0.00
  Average Iterations per Step :     2.00
  Percent Not Converging      :     0.00
  
  
  ***************************
  Subcatchment Runoff Summary
  ***************************
  
  ------------------------------------------------------------------------------------------------------------------------------
                            Total      Total      Total      Total     Imperv       Perv      Total       Total     Peak  Runoff
                           Precip      Runon       Evap      Infil     Runoff     Runoff     Runoff      Runoff   Runoff   Coeff
  Subcatchment                 mm         mm         mm         mm         mm         mm         mm    10^6 ltr      CMS
  ------------------------------------------------------------------------------------------------------------------------------
  SC01                       4.10       0.00       0.00       0.00       4.02       0.00       4.02        1.33     0.35   0.979
  SC02                       4.10       0.00       0.00       0.00       4.01       0.00       4.01        0.91     0.24   0.978
  SC03                       4.10       0.00       0.00       0.00       4.04       0.00       4.04        0.73     0.20   0.983
  SC04                       4.10       0.00       0.00       0.00       3.92       0.00       3.92        0.27     0.06   0.954
  SC05                       4.10       0.00       0.00       0.00       4.01       0.00       4.01        0.63     0.16   0.978
  SC06                       4.10       0.00       0.00       0.00       3.87       0.00       3.87        1.26     0.26   0.943
  SC07                       4.10       0.00       0.00       0.00       3.92       0.00       3.92        0.19     0.04   0.955
  SC08                       4.10       0.00       0.00       0.00       3.99       0.00       3.99        1.12     0.27   0.972
  SC09                       4.10       0.00       0.00       0.00       3.97       0.00       3.97        0.27     0.06   0.966
  SC010                      4.10       0.00       0.00       0.00       3.99       0.00       3.99        0.47     0.12   0.973
  
  
  ******************
  Node Depth Summary
  ******************
  
  ---------------------------------------------------------------------------------
                                 Average  Maximum  Maximum  Time of Max    Reported
                                   Depth    Depth      HGL   Occurrence   Max Depth
  Node                 Type       Meters   Meters   Meters  days hr:min      Meters
  ---------------------------------------------------------------------------------
  J1                   JUNCTION     0.07     0.14    34.14     0  03:01        0.14
  J3                   JUNCTION     0.09     0.12    18.12     0  07:02        0.12
  CSO7                 JUNCTION     0.09     0.19    34.19     0  03:01        0.19
  J5                   JUNCTION     0.06     0.11    32.11     0  03:02        0.11
  CSO9                 JUNCTION     0.10     0.25    40.25     0  03:01        0.25
  J8                   JUNCTION     0.10     0.20    36.20     0  03:02        0.20
  CSO8                 JUNCTION     0.11     0.35    32.35     0  03:01        0.35
  J10                  JUNCTION     0.08     0.21    29.21     0  03:02        0.21
  J13                  JUNCTION     0.06     0.14    29.14     0  03:01        0.14
  J15                  JUNCTION     0.14     0.25    15.25     0  03:03        0.25
  J16                  JUNCTION     0.06     0.15    30.15     0  03:01        0.15
  CSO10                JUNCTION     0.10     0.29    30.29     0  03:01        0.29
  J12                  JUNCTION     0.12     0.23    26.23     0  03:03        0.23
  J4                   JUNCTION     0.11     0.22    33.22     0  03:03        0.22
  J6                   JUNCTION     0.05     0.07    25.07     0  06:58        0.07
  J2                   JUNCTION     0.06     0.07    25.07     0  04:34        0.07
  J19                  JUNCTION     0.12     0.16     8.16     0  03:32        0.16
  J9                   JUNCTION     0.08     0.11    29.11     0  06:08        0.11
  J14                  JUNCTION     0.09     0.13    20.13     0  06:31        0.13
  J17                  JUNCTION     0.04     0.06    20.06     0  07:10        0.06
  J7                   JUNCTION     0.07     0.16    39.16     0  03:03        0.16
  J11                  JUNCTION     0.09     0.22    31.22     0  03:02        0.22
  J18                  JUNCTION     0.05     0.13    29.13     0  03:02        0.12
  Out_to_WWTP          OUTFALL      0.12     0.16     6.16     0  03:32        0.16
  T5                   STORAGE      2.07     3.14    30.14     0  04:32        3.14
  T4                   STORAGE      1.91     3.09    30.09     0  06:43        3.09
  T6                   STORAGE      3.24     5.00    36.00     0  04:06        5.00
  T3                   STORAGE      1.75     2.93    24.93     0  07:50        2.93
  T2                   STORAGE      1.74     2.67    23.67     0  06:53        2.67
  T1                   STORAGE      2.08     3.82    13.82     0  03:32        3.82
  
  
  *******************
  Node Inflow Summary
  *******************
  
  -------------------------------------------------------------------------------------------------
                                  Maximum  Maximum                  Lateral       Total        Flow
                                  Lateral    Total  Time of Max      Inflow      Inflow     Balance
                                   Inflow   Inflow   Occurrence      Volume      Volume       Error
  Node                 Type           CMS      CMS  days hr:min    10^6 ltr    10^6 ltr     Percent
  -------------------------------------------------------------------------------------------------
  J1                   JUNCTION     0.185    0.185     0  03:01        1.19        1.19       0.060
  J3                   JUNCTION     0.000    0.142     0  07:00           0        2.29       1.049
  CSO7                 JUNCTION     0.053    0.053     0  03:01       0.477       0.477       0.096
  J5                   JUNCTION     0.064    0.112     0  03:01       0.398        0.87       0.197
  CSO9                 JUNCTION     0.072    0.072     0  03:01        0.47        0.47       0.094
  J8                   JUNCTION     0.298    0.364     0  03:01         2.2        2.67       0.218
  CSO8                 JUNCTION     0.285    0.285     0  03:01        1.41        1.41       0.039
  J10                  JUNCTION     0.219    0.484     0  03:01        1.11        2.51       0.219
  J13                  JUNCTION     0.257    0.257     0  03:01        1.38        1.38      -0.189
  J15                  JUNCTION     0.000    0.556     0  03:01           0        5.09       1.158
  J16                  JUNCTION     0.373    0.373     0  03:01        1.88        1.88       0.035
  CSO10                JUNCTION     0.122    0.122     0  03:01       0.608       0.608       0.070
  J12                  JUNCTION     0.000    0.499     0  03:02           0        3.69       0.756
  J4                   JUNCTION     0.000    0.052     0  03:01           0       0.476       0.790
  J6                   JUNCTION     0.000    0.022     0  06:50           0       0.361       0.945
  J2                   JUNCTION     0.000    0.031     0  04:32           0       0.656       0.664
  J19                  JUNCTION     0.000    0.236     0  03:32           0        4.39       0.206
  J9                   JUNCTION     0.000    0.075     0  04:06           0         1.2       1.399
  J14                  JUNCTION     0.000    0.093     0  07:20           0        1.29       0.278
  J17                  JUNCTION     0.000    0.024     0  07:00           0       0.334       1.545
  J7                   JUNCTION     0.000    0.071     0  03:01           0       0.469       0.686
  J11                  JUNCTION     0.000    0.283     0  03:01           0        1.41       0.418
  J18                  JUNCTION     0.000    0.121     0  03:01           0       0.608       0.188
  Out_to_WWTP          OUTFALL      0.000    0.236     0  03:32           0        4.38       0.000
  T5                   STORAGE      0.000    0.182     0  03:01           0        1.19      29.257
  T4                   STORAGE      0.000    0.110     0  03:02           0       0.868      33.299
  T6                   STORAGE      0.000    0.355     0  03:02           0        2.66      40.813
  T3                   STORAGE      0.000    0.483     0  03:03           0        3.66      30.301
  T2                   STORAGE      0.000    0.251     0  03:01           0        1.38      60.969
  T1                   STORAGE      0.000    0.526     0  03:03           0        5.03       7.650
  
  
  **********************
  Node Surcharge Summary
  **********************
  
  No nodes were surcharged.
  
  
  *********************
  Node Flooding Summary
  *********************
  
  Flooding refers to all water that overflows a node, whether it ponds or not.
  --------------------------------------------------------------------------
                                                             Total   Maximum
                                 Maximum   Time of Max       Flood    Ponded
                        Hours       Rate    Occurrence      Volume     Depth
  Node                 Flooded       CMS   days hr:min    10^6 ltr    Meters
  --------------------------------------------------------------------------
  T6                      1.58     0.055      0  04:40       0.148     0.000
  
  
  **********************
  Storage Volume Summary
  **********************
  
  --------------------------------------------------------------------------------------------------
                         Average     Avg  Evap Exfil       Maximum     Max    Time of Max    Maximum
                          Volume    Pcnt  Pcnt  Pcnt        Volume    Pcnt     Occurrence    Outflow
  Storage Unit           1000 m3    Full  Loss  Loss       1000 m3    Full    days hr:min        CMS
  --------------------------------------------------------------------------------------------------
  T5                       0.207      41     0     0         0.314      63       0  04:32      0.031
  T4                       0.191      38     0     0         0.309      62       0  06:43      0.022
  T6                       0.388      65     0     0         0.600     100       0  04:06      0.075
  T3                       0.909      35     0     0         1.524      59       0  07:50      0.093
  T2                       0.348      35     0     0         0.534      53       0  06:53      0.024
  T1                       0.291      42     0     0         0.534      76       0  03:32      0.236
  
  
  ***********************
  Outfall Loading Summary
  ***********************
  
  -----------------------------------------------------------
                         Flow       Avg       Max       Total
                         Freq      Flow      Flow      Volume
  Outfall Node           Pcnt       CMS       CMS    10^6 ltr
  -----------------------------------------------------------
  Out_to_WWTP           99.01     0.157     0.236       4.381
  -----------------------------------------------------------
  System                99.01     0.157     0.236       4.381
  
  
  ********************
  Link Flow Summary
  ********************
  
  -----------------------------------------------------------------------------
                                 Maximum  Time of Max   Maximum    Max/    Max/
                                  |Flow|   Occurrence   |Veloc|    Full    Full
  Link                 Type          CMS  days hr:min     m/sec    Flow   Depth
  -----------------------------------------------------------------------------
  C1                   CONDUIT     0.031     0  04:34      1.03    0.01    0.09
  C6                   CONDUIT     0.049     0  03:03      1.24    0.78    0.55
  C2                   CONDUIT     0.022     0  06:58      0.93    0.02    0.15
  C9                   CONDUIT     0.068     0  03:03      1.07    0.23    0.36
  C16                  CONDUIT     0.272     0  03:02      1.47    0.03    0.11
  C3                   CONDUIT     0.093     0  06:32      1.69    0.04    0.12
  C19                  CONDUIT     0.024     0  07:10      0.61    0.01    0.14
  C11                  CONDUIT     0.135     0  07:02      1.60    0.01    0.08
  C20                  CONDUIT     0.366     0  03:01      2.30    0.01    0.10
  C22                  CONDUIT     0.117     0  03:02      1.33    0.05    0.23
  C12                  CONDUIT     0.075     0  04:30      1.14    0.01    0.07
  C17                  CONDUIT     0.470     0  03:02      2.50    0.02    0.11
  C10                  CONDUIT     0.355     0  03:02      1.66    0.04    0.57
  C13                  CONDUIT     0.483     0  03:03      1.41    0.03    0.55
  C18                  CONDUIT     0.251     0  03:01      1.72    0.01    0.53
  C23                  CONDUIT     0.526     0  03:03      1.24    0.06    0.58
  C4                   CONDUIT     0.182     0  03:01      1.98    0.04    0.57
  C7                   CONDUIT     0.110     0  03:02      1.43    0.03    0.56
  C14                  CONDUIT     0.236     0  03:32      2.00    0.01    0.08
  C5                   CONDUIT     0.052     0  03:01      1.22    0.89    0.79
  C8                   CONDUIT     0.071     0  03:01      1.31    0.90    0.65
  C15                  CONDUIT     0.283     0  03:01      2.63    0.90    0.63
  C21                  CONDUIT     0.121     0  03:01      1.69    0.69    0.48
  V4                   ORIFICE     0.022     0  06:50                      0.35
  V5                   ORIFICE     0.031     0  04:32                      1.00
  V1                   ORIFICE     0.236     0  03:32                      1.00
  V6                   ORIFICE     0.075     0  04:06                      0.43
  V3                   ORIFICE     0.093     0  07:20                      0.65
  V2                   ORIFICE     0.024     0  07:00                      0.24
  
  
  ***************************
  Flow Classification Summary
  ***************************
  
  -------------------------------------------------------------------------------------
                      Adjusted    ---------- Fraction of Time in Flow Class ---------- 
                       /Actual         Up    Down  Sub   Sup   Up    Down  Norm  Inlet 
  Conduit               Length    Dry  Dry   Dry   Crit  Crit  Crit  Crit  Ltd   Ctrl  
  -------------------------------------------------------------------------------------
  C1                      1.00   0.00  0.00  0.00  0.00  1.00  0.00  0.00  0.94  0.00
  C6                      1.00   0.00  0.00  0.00  0.01  0.99  0.00  0.00  0.00  0.00
  C2                      1.00   0.00  0.00  0.00  0.48  0.52  0.00  0.00  0.95  0.00
  C9                      1.00   0.00  0.00  0.00  1.00  0.00  0.00  0.00  1.00  0.00
  C16                     1.00   0.00  0.00  0.00  0.61  0.39  0.00  0.00  0.50  0.00
  C3                      1.00   0.00  0.00  0.00  0.05  0.95  0.00  0.00  0.57  0.00
  C19                     1.00   0.00  0.00  0.00  1.00  0.00  0.00  0.00  1.00  0.00
  C11                     1.00   0.00  0.00  0.00  0.36  0.64  0.00  0.00  1.00  0.00
  C20                     1.00   0.00  0.00  0.00  0.53  0.47  0.00  0.00  0.98  0.00
  C22                     1.00   0.00  0.00  0.00  0.84  0.16  0.00  0.00  1.00  0.00
  C12                     1.00   0.00  0.00  0.00  0.61  0.38  0.00  0.00  0.86  0.00
  C17                     1.00   0.00  0.00  0.00  0.24  0.76  0.00  0.00  0.97  0.00
  C10                     1.00   0.00  0.00  0.00  0.96  0.04  0.00  0.00  0.97  0.00
  C13                     1.00   0.00  0.00  0.00  0.87  0.13  0.00  0.00  0.90  0.00
  C18                     1.00   0.00  0.00  0.00  0.94  0.06  0.00  0.00  0.97  0.00
  C23                     1.00   0.00  0.00  0.00  0.87  0.13  0.00  0.00  0.94  0.00
  C4                      1.00   0.00  0.00  0.00  0.96  0.04  0.00  0.00  0.98  0.00
  C7                      1.00   0.00  0.00  0.00  0.94  0.06  0.00  0.00  0.97  0.00
  C14                     1.00   0.00  0.00  0.00  0.00  0.99  0.00  0.00  0.38  0.00
  C5                      1.00   0.00  0.00  0.00  0.88  0.12  0.00  0.00  0.98  0.00
  C8                      1.00   0.00  0.00  0.00  0.01  0.99  0.00  0.00  0.00  0.00
  C15                     1.00   0.00  0.00  0.00  0.00  1.00  0.00  0.00  0.00  0.00
  C21                     1.00   0.00  0.00  0.00  0.00  1.00  0.00  0.00  0.00  0.00
  
  
  *************************
  Conduit Surcharge Summary
  *************************
  
  ----------------------------------------------------------------------------
                                                           Hours        Hours 
                         --------- Hours Full --------   Above Full   Capacity
  Conduit                Both Ends  Upstream  Dnstream   Normal Flow   Limited
  ----------------------------------------------------------------------------
  C10                         0.01      0.01      5.33      0.01         0.01
  C13                         0.01      0.01      4.52      0.01         0.01
  C18                         0.01      0.01      4.67      0.01         0.01
  C23                         0.01      0.01      5.33      0.01         0.01
  C4                          0.01      0.01      5.56      0.01         0.01
  C7                          0.01      0.01      5.23      0.01         0.01
  

  Analysis begun on:  Fri Sep  3 17:45:26 2021
  Analysis ended on:  Fri Sep  3 17:45:26 2021
  Total elapsed time: < 1 sec