
  EPA STORM WATER MANAGEMENT MODEL - VERSION 5.1 (Build 5.3.0.dev0)
  --------------------------------------------------------------

  
  *********************************************************
  NOTE: The summary statistics displayed in this report are
  based on results found at every computational time step,  
  not just on results from each reporting time step.
  *********************************************************
  
  ****************
  Analysis Options
  ****************
  Flow Units ............... CMS
  Process Models:
    Rainfall/Runoff ........ YES
    RDII ................... NO
    Snowmelt ............... NO
    Groundwater ............ NO
    Flow Routing ........... YES
    Ponding Allowed ........ YES
    Water Quality .......... NO
  Infiltration Method ...... HORTON
  Flow Routing Method ...... DYNWAVE
  Surcharge Method ......... EXTRAN
  Starting Date ............ 08/28/2015 08:00:00
  Ending Date .............. 08/28/2015 15:50:00
  Antecedent Dry Days ...... 0.0
  Report Time Step ......... 00:01:00
  Wet Time Step ............ 00:01:00
  Dry Time Step ............ 00:01:00
  Routing Time Step ........ 5.00 sec
  Variable Time Step ....... YES
  Maximum Trials ........... 8
  Number of Threads ........ 1
  Head Tolerance ........... 0.001500 m
  
  
  **************************        Volume         Depth
  Runoff Quantity Continuity     hectare-m            mm
  **************************     ---------       -------
  Total Precipitation ......         2.122        11.777
  Evaporation Loss .........         0.000         0.000
  Infiltration Loss ........         0.000         0.000
  Surface Runoff ...........         2.098        11.644
  Final Storage ............         0.024         0.134
  Continuity Error (%) .....        -0.008
  
  
  **************************        Volume        Volume
  Flow Routing Continuity        hectare-m      10^6 ltr
  **************************     ---------     ---------
  Dry Weather Inflow .......         0.396         3.955
  Wet Weather Inflow .......         2.098        20.982
  Groundwater Inflow .......         0.000         0.000
  RDII Inflow ..............         0.000         0.000
  External Inflow ..........         0.000         0.000
  External Outflow .........         0.557         5.572
  Flooding Loss ............         0.860         8.602
  Evaporation Loss .........         0.000         0.000
  Exfiltration Loss ........         0.000         0.000
  Initial Stored Volume ....         0.000         0.000
  Final Stored Volume ......         0.818         8.181
  Continuity Error (%) .....        10.355
  
  
  *************************
  Highest Continuity Errors
  *************************
  Node T2 (29.50%)
  Node T3 (22.28%)
  Node T4 (20.09%)
  Node T5 (16.83%)
  Node T6 (14.42%)
  
  
  ***************************
  Time-Step Critical Elements
  ***************************
  None
  
  
  ********************************
  Highest Flow Instability Indexes
  ********************************
  All links are stable.
  
  
  *************************
  Routing Time Step Summary
  *************************
  Minimum Time Step           :     4.50 sec
  Average Time Step           :     5.00 sec
  Maximum Time Step           :     5.00 sec
  Percent in Steady State     :     0.00
  Average Iterations per Step :     2.19
  Percent Not Converging      :     0.60
  
  
  ***************************
  Subcatchment Runoff Summary
  ***************************
  
  ------------------------------------------------------------------------------------------------------------------------------
                            Total      Total      Total      Total     Imperv       Perv      Total       Total     Peak  Runoff
                           Precip      Runon       Evap      Infil     Runoff     Runoff     Runoff      Runoff   Runoff   Coeff
  Subcatchment                 mm         mm         mm         mm         mm         mm         mm    10^6 ltr      CMS
  ------------------------------------------------------------------------------------------------------------------------------
  SC01                      11.78       0.00       0.00       0.00      11.69       0.00      11.69        3.86     1.12   0.993
  SC02                      11.78       0.00       0.00       0.00      11.69       0.00      11.69        2.66     0.77   0.992
  SC03                      11.78       0.00       0.00       0.00      11.71       0.00      11.71        2.11     0.64   0.994
  SC04                      11.78       0.00       0.00       0.00      11.58       0.00      11.58        0.80     0.20   0.983
  SC05                      11.78       0.00       0.00       0.00      11.68       0.00      11.68        1.82     0.52   0.992
  SC06                      11.78       0.00       0.00       0.00      11.52       0.00      11.52        3.75     0.92   0.978
  SC07                      11.78       0.00       0.00       0.00      11.58       0.00      11.58        0.55     0.14   0.983
  SC08                      11.78       0.00       0.00       0.00      11.66       0.00      11.66        3.26     0.90   0.990
  SC09                      11.78       0.00       0.00       0.00      11.63       0.00      11.63        0.80     0.21   0.988
  SC010                     11.78       0.00       0.00       0.00      11.66       0.00      11.66        1.37     0.38   0.990
  
  
  ******************
  Node Depth Summary
  ******************
  
  ---------------------------------------------------------------------------------
                                 Average  Maximum  Maximum  Time of Max    Reported
                                   Depth    Depth      HGL   Occurrence   Max Depth
  Node                 Type       Meters   Meters   Meters  days hr:min      Meters
  ---------------------------------------------------------------------------------
  J1                   JUNCTION     0.08     0.25    34.25     0  02:53        0.25
  J3                   JUNCTION     0.10     0.14    18.14     0  04:55        0.14
  CSO7                 JUNCTION     0.24     1.20    35.20     0  02:21        1.20
  J5                   JUNCTION     0.07     0.18    32.18     0  02:57        0.18
  CSO9                 JUNCTION     0.30     2.00    42.00     0  02:33        2.00
  J8                   JUNCTION     0.13     0.34    36.34     0  02:58        0.34
  CSO8                 JUNCTION     0.32     2.00    34.00     0  02:31        2.00
  J10                  JUNCTION     0.11     0.32    29.32     0  02:53        0.32
  J13                  JUNCTION     0.07     0.23    29.23     0  02:53        0.23
  J15                  JUNCTION     0.18     0.41    15.41     0  02:55        0.41
  J16                  JUNCTION     0.08     0.26    30.26     0  02:53        0.26
  CSO10                JUNCTION     0.20     1.00    31.00     0  02:30        1.00
  J12                  JUNCTION     0.66     1.01    27.01     0  03:52        1.01
  J4                   JUNCTION     0.19     1.15    34.15     0  02:21        0.76
  J6                   JUNCTION     0.06     0.07    25.07     0  03:50        0.07
  J2                   JUNCTION     0.07     0.08    25.08     0  03:34        0.08
  J19                  JUNCTION     0.14     0.17     8.17     0  02:33        0.17
  J9                   JUNCTION     0.08     0.11    29.11     0  03:50        0.11
  J14                  JUNCTION     0.10     0.15    20.15     0  04:01        0.15
  J17                  JUNCTION     0.05     0.07    20.07     0  06:20        0.07
  J7                   JUNCTION     0.10     0.23    39.23     0  03:08        0.23
  J11                  JUNCTION     0.11     0.30    31.30     0  03:07        0.30
  J18                  JUNCTION     0.06     0.16    29.16     0  03:07        0.16
  Out_to_WWTP          OUTFALL      0.14     0.17     6.17     0  03:58        0.17
  T5                   STORAGE      3.46     5.00    32.00     0  02:46        5.00
  T4                   STORAGE      3.40     5.00    32.00     0  03:05        5.00
  T6                   STORAGE      3.69     5.00    36.00     0  02:35        5.00
  T3                   STORAGE      3.43     5.00    27.00     0  03:36        5.00
  T2                   STORAGE      3.50     5.00    26.00     0  02:56        5.00
  T1                   STORAGE      3.26     5.00    15.00     0  02:31        5.00
  
  
  *******************
  Node Inflow Summary
  *******************
  
  -------------------------------------------------------------------------------------------------
                                  Maximum  Maximum                  Lateral       Total        Flow
                                  Lateral    Total  Time of Max      Inflow      Inflow     Balance
                                   Inflow   Inflow   Occurrence      Volume      Volume       Error
  Node                 Type           CMS      CMS  days hr:min    10^6 ltr    10^6 ltr     Percent
  -------------------------------------------------------------------------------------------------
  J1                   JUNCTION     0.544    0.544     0  02:53        2.38        2.38       0.014
  J3                   JUNCTION     0.000    0.190     0  04:51           0        3.19       1.203
  CSO7                 JUNCTION     0.151    0.151     0  02:56        0.84        0.84       0.055
  J5                   JUNCTION     0.208    0.280     0  02:56       0.926        1.64       0.092
  CSO9                 JUNCTION     0.222    0.222     0  02:55       0.999       0.999       0.049
  J8                   JUNCTION     0.951    1.079     0  02:57        4.69        5.58       0.095
  CSO8                 JUNCTION     0.911    0.911     0  02:54        3.56        3.56       0.015
  J10                  JUNCTION     0.656    1.142     0  02:52        2.49        5.55      -0.042
  J13                  JUNCTION     0.782    0.782     0  02:53        3.13        3.13      -0.137
  J15                  JUNCTION     0.000    1.525     0  02:53           0        9.31       0.913
  J16                  JUNCTION     1.143    1.143     0  02:53        4.41        4.41      -0.016
  CSO10                JUNCTION     0.386    0.386     0  02:54        1.51        1.51       0.025
  J12                  JUNCTION     0.000    1.172     0  02:53           0        6.93      12.638
  J4                   JUNCTION     0.000    0.072     0  02:57           0       0.721       0.472
  J6                   JUNCTION     0.000    0.028     0  03:30           0       0.516       0.763
  J2                   JUNCTION     0.000    0.039     0  02:46           0       0.848       0.603
  J19                  JUNCTION     0.000    0.271     0  02:31           0        5.58       0.193
  J9                   JUNCTION     0.000    0.075     0  03:20           0        1.25       0.657
  J14                  JUNCTION     0.000    0.124     0  04:07           0        1.85       0.398
  J17                  JUNCTION     0.000    0.033     0  03:40           0       0.454       1.443
  J7                   JUNCTION     0.000    0.127     0  03:08           0       0.891       0.349
  J11                  JUNCTION     0.000    0.486     0  03:07           0        3.06       0.211
  J18                  JUNCTION     0.000    0.202     0  03:07           0        1.29       0.067
  Out_to_WWTP          OUTFALL      0.000    0.271     0  02:33           0        5.57       0.000
  T5                   STORAGE      0.000    0.544     0  02:53           0        2.38      20.238
  T4                   STORAGE      0.000    0.280     0  02:57           0        1.64      25.146
  T6                   STORAGE      0.000    1.078     0  02:58           0        5.57      16.849
  T3                   STORAGE      0.000    1.163     0  02:56           0        6.15      28.673
  T2                   STORAGE      0.000    0.781     0  02:53           0        3.13      41.842
  T1                   STORAGE      0.000    1.499     0  02:56           0        9.22       6.296
  
  
  **********************
  Node Surcharge Summary
  **********************
  
  Surcharging occurs when water rises above the top of the highest conduit.
  ---------------------------------------------------------------------
                                               Max. Height   Min. Depth
                                   Hours       Above Crown    Below Rim
  Node                 Type      Surcharged         Meters       Meters
  ---------------------------------------------------------------------
  CSO7                 JUNCTION        1.10          0.945        0.000
  CSO9                 JUNCTION        1.12          1.682        0.000
  CSO8                 JUNCTION        1.05          1.547        0.000
  CSO10                JUNCTION        0.75          0.560        0.000
  J4                   JUNCTION        1.06          0.852        0.848
  
  
  *********************
  Node Flooding Summary
  *********************
  
  Flooding refers to all water that overflows a node, whether it ponds or not.
  --------------------------------------------------------------------------
                                                             Total   Maximum
                                 Maximum   Time of Max       Flood    Ponded
                        Hours       Rate    Occurrence      Volume     Depth
  Node                 Flooded       CMS   days hr:min    10^6 ltr    Meters
  --------------------------------------------------------------------------
  CSO7                    0.91     0.078      0  02:56       0.119     0.000
  CSO9                    0.57     0.095      0  02:55       0.107     0.000
  CSO8                    0.60     0.426      0  02:54       0.495     0.000
  CSO10                   0.62     0.183      0  02:54       0.216     0.000
  T5                      1.35     0.505      0  02:53       0.731     0.000
  T4                      2.05     0.212      0  03:05       0.344     0.000
  T6                      3.37     1.015      0  02:56       2.946     0.000
  T3                      0.99     0.394      0  03:44       0.221     0.000
  T2                      2.30     0.744      0  02:56       0.778     0.000
  T1                      1.30     1.228      0  02:56       2.644     0.000
  
  
  **********************
  Storage Volume Summary
  **********************
  
  --------------------------------------------------------------------------------------------------
                         Average     Avg  Evap Exfil       Maximum     Max    Time of Max    Maximum
                          Volume    Pcnt  Pcnt  Pcnt        Volume    Pcnt     Occurrence    Outflow
  Storage Unit           1000 m3    Full  Loss  Loss       1000 m3    Full    days hr:min        CMS
  --------------------------------------------------------------------------------------------------
  T5                       0.346      69     0     0         0.500     100       0  02:46      0.039
  T4                       0.340      68     0     0         0.500     100       0  03:05      0.028
  T6                       0.442      74     0     0         0.600     100       0  02:35      0.075
  T3                       1.781      69     0     0         2.600     100       0  03:36      0.409
  T2                       0.701      70     0     0         1.000     100       0  02:56      0.033
  T1                       0.456      65     0     0         0.700     100       0  02:31      0.271
  
  
  ***********************
  Outfall Loading Summary
  ***********************
  
  -----------------------------------------------------------
                         Flow       Avg       Max       Total
                         Freq      Flow      Flow      Volume
  Outfall Node           Pcnt       CMS       CMS    10^6 ltr
  -----------------------------------------------------------
  Out_to_WWTP           99.01     0.200     0.271       5.572
  -----------------------------------------------------------
  System                99.01     0.200     0.271       5.572
  
  
  ********************
  Link Flow Summary
  ********************
  
  -----------------------------------------------------------------------------
                                 Maximum  Time of Max   Maximum    Max/    Max/
                                  |Flow|   Occurrence   |Veloc|    Full    Full
  Link                 Type          CMS  days hr:min     m/sec    Flow   Depth
  -----------------------------------------------------------------------------
  C1                   CONDUIT     0.039     0  03:34      1.03    0.01    0.11
  C6                   CONDUIT     0.072     0  02:57      1.29    1.15    0.80
  C2                   CONDUIT     0.028     0  03:50      1.00    0.03    0.17
  C9                   CONDUIT     0.127     0  03:08      1.28    0.43    0.57
  C16                  CONDUIT     0.488     0  02:42      1.81    0.05    0.15
  C3                   CONDUIT     0.124     0  04:52      1.83    0.05    0.14
  C19                  CONDUIT     0.033     0  06:20      0.68    0.01    0.24
  C11                  CONDUIT     0.186     0  04:55      1.77    0.01    0.13
  C20                  CONDUIT     1.142     0  02:53      3.33    0.04    0.17
  C22                  CONDUIT     0.202     0  03:07      1.58    0.09    0.36
  C12                  CONDUIT     0.075     0  03:50      0.57    0.01    0.28
  C17                  CONDUIT     1.137     0  02:53      3.27    0.06    0.28
  C10                  CONDUIT     1.078     0  02:58      1.66    0.11    0.61
  C13                  CONDUIT     1.163     0  02:56      1.38    0.07    0.75
  C18                  CONDUIT     0.781     0  02:53      1.72    0.03    0.56
  C23                  CONDUIT     1.499     0  02:56      1.26    0.17    0.64
  C4                   CONDUIT     0.544     0  02:53      1.98    0.13    0.62
  C7                   CONDUIT     0.280     0  02:57      1.43    0.07    0.59
  C14                  CONDUIT     0.271     0  02:33      2.08    0.02    0.09
  C5                   CONDUIT     0.072     0  02:57      1.41    1.24    1.00
  C8                   CONDUIT     0.127     0  03:08      1.75    1.60    0.86
  C15                  CONDUIT     0.486     0  03:07      3.42    1.55    0.83
  C21                  CONDUIT     0.202     0  03:07      1.82    1.16    0.69
  V4                   ORIFICE     0.028     0  03:30                      0.35
  V5                   ORIFICE     0.039     0  02:46                      1.00
  V1                   ORIFICE     0.271     0  02:31                      1.00
  V6                   ORIFICE     0.075     0  03:20                      0.43
  V3                   ORIFICE     0.124     0  04:07                      0.65
  V2                   ORIFICE     0.033     0  03:40                      0.24
  
  
  ***************************
  Flow Classification Summary
  ***************************
  
  -------------------------------------------------------------------------------------
                      Adjusted    ---------- Fraction of Time in Flow Class ---------- 
                       /Actual         Up    Down  Sub   Sup   Up    Down  Norm  Inlet 
  Conduit               Length    Dry  Dry   Dry   Crit  Crit  Crit  Crit  Ltd   Ctrl  
  -------------------------------------------------------------------------------------
  C1                      1.00   0.00  0.00  0.00  0.02  0.98  0.00  0.00  0.94  0.00
  C6                      1.00   0.00  0.00  0.00  0.17  0.83  0.00  0.00  0.00  0.00
  C2                      1.00   0.00  0.00  0.00  0.34  0.66  0.00  0.00  0.95  0.00
  C9                      1.00   0.00  0.00  0.00  1.00  0.00  0.00  0.00  1.00  0.00
  C16                     1.00   0.00  0.00  0.00  0.54  0.46  0.00  0.00  0.39  0.00
  C3                      1.00   0.00  0.00  0.00  0.05  0.94  0.00  0.00  0.54  0.00
  C19                     1.00   0.00  0.00  0.00  1.00  0.00  0.00  0.00  1.00  0.00
  C11                     1.00   0.00  0.00  0.00  0.37  0.62  0.00  0.00  1.00  0.00
  C20                     1.00   0.00  0.00  0.00  0.54  0.46  0.00  0.00  0.98  0.00
  C22                     1.00   0.00  0.00  0.00  0.74  0.25  0.00  0.00  1.00  0.00
  C12                     1.00   0.00  0.00  0.00  1.00  0.00  0.00  0.00  1.00  0.00
  C17                     1.00   0.00  0.00  0.00  0.61  0.39  0.00  0.00  0.93  0.00
  C10                     1.00   0.00  0.00  0.00  0.96  0.04  0.00  0.00  0.98  0.00
  C13                     1.00   0.00  0.00  0.00  0.85  0.15  0.00  0.00  0.28  0.00
  C18                     1.00   0.00  0.00  0.00  0.94  0.06  0.00  0.00  0.97  0.00
  C23                     1.00   0.00  0.00  0.00  0.85  0.15  0.00  0.00  0.94  0.00
  C4                      1.00   0.00  0.00  0.00  0.96  0.04  0.00  0.00  0.98  0.00
  C7                      1.00   0.00  0.00  0.00  0.94  0.06  0.00  0.00  0.97  0.00
  C14                     1.00   0.00  0.00  0.00  0.00  0.99  0.00  0.00  0.27  0.00
  C5                      1.00   0.00  0.00  0.00  0.90  0.10  0.00  0.00  0.84  0.00
  C8                      1.00   0.00  0.00  0.00  0.18  0.82  0.00  0.00  0.00  0.00
  C15                     1.00   0.00  0.00  0.00  0.00  1.00  0.00  0.00  0.00  0.00
  C21                     1.00   0.00  0.00  0.00  0.00  1.00  0.00  0.00  0.00  0.00
  
  
  *************************
  Conduit Surcharge Summary
  *************************
  
  ----------------------------------------------------------------------------
                                                           Hours        Hours 
                         --------- Hours Full --------   Above Full   Capacity
  Conduit                Both Ends  Upstream  Dnstream   Normal Flow   Limited
  ----------------------------------------------------------------------------
  C6                          0.01      1.06      0.01      0.96         0.01
  C10                         0.01      0.01      5.93      0.01         0.01
  C13                         0.01      0.01      5.41      0.01         0.01
  C18                         0.01      0.01      5.51      0.01         0.01
  C23                         0.01      0.01      5.96      0.01         0.01
  C4                          0.01      0.01      6.09      0.01         0.01
  C7                          0.01      0.01      5.82      0.01         0.01
  C5                          1.10      1.10      1.22      1.18         1.07
  C8                          0.01      1.12      0.01      1.15         0.01
  C15                         0.01      1.05      0.01      1.14         0.01
  C21                         0.01      0.75      0.01      0.76         0.01
  

  Analysis begun on:  Fri Sep  3 17:46:23 2021
  Analysis ended on:  Fri Sep  3 17:46:23 2021
  Total elapsed time: < 1 sec