
  EPA STORM WATER MANAGEMENT MODEL - VERSION 5.1 (Build 5.3.0.dev0)
  --------------------------------------------------------------

  
  *********************************************************
  NOTE: The summary statistics displayed in this report are
  based on results found at every computational time step,  
  not just on results from each reporting time step.
  *********************************************************
  
  ****************
  Analysis Options
  ****************
  Flow Units ............... CMS
  Process Models:
    Rainfall/Runoff ........ YES
    RDII ................... NO
    Snowmelt ............... NO
    Groundwater ............ NO
    Flow Routing ........... YES
    Ponding Allowed ........ YES
    Water Quality .......... NO
  Infiltration Method ...... HORTON
  Flow Routing Method ...... DYNWAVE
  Surcharge Method ......... EXTRAN
  Starting Date ............ 08/28/2015 08:00:00
  Ending Date .............. 08/28/2015 15:50:00
  Antecedent Dry Days ...... 0.0
  Report Time Step ......... 00:01:00
  Wet Time Step ............ 00:01:00
  Dry Time Step ............ 00:01:00
  Routing Time Step ........ 5.00 sec
  Variable Time Step ....... YES
  Maximum Trials ........... 8
  Number of Threads ........ 1
  Head Tolerance ........... 0.001500 m
  
  
  **************************        Volume         Depth
  Runoff Quantity Continuity     hectare-m            mm
  **************************     ---------       -------
  Total Precipitation ......         1.327         7.366
  Evaporation Loss .........         0.000         0.000
  Infiltration Loss ........         0.000         0.000
  Surface Runoff ...........         1.304         7.238
  Final Storage ............         0.023         0.128
  Continuity Error (%) .....        -0.006
  
  
  **************************        Volume        Volume
  Flow Routing Continuity        hectare-m      10^6 ltr
  **************************     ---------     ---------
  Dry Weather Inflow .......         0.396         3.955
  Wet Weather Inflow .......         1.304        13.042
  Groundwater Inflow .......         0.000         0.000
  RDII Inflow ..............         0.000         0.000
  External Inflow ..........         0.000         0.000
  External Outflow .........         0.532         5.319
  Flooding Loss ............         0.225         2.253
  Evaporation Loss .........         0.000         0.000
  Exfiltration Loss ........         0.000         0.000
  Initial Stored Volume ....         0.000         0.000
  Final Stored Volume ......         0.715         7.150
  Continuity Error (%) .....        13.393
  
  
  *************************
  Highest Continuity Errors
  *************************
  Node T2 (38.64%)
  Node T4 (26.66%)
  Node T3 (24.84%)
  Node T5 (23.49%)
  Node T6 (19.47%)
  
  
  ***************************
  Time-Step Critical Elements
  ***************************
  None
  
  
  ********************************
  Highest Flow Instability Indexes
  ********************************
  Link C13 (1)
  
  
  *************************
  Routing Time Step Summary
  *************************
  Minimum Time Step           :     4.50 sec
  Average Time Step           :     5.00 sec
  Maximum Time Step           :     5.00 sec
  Percent in Steady State     :     0.00
  Average Iterations per Step :     2.16
  Percent Not Converging      :     0.50
  
  
  ***************************
  Subcatchment Runoff Summary
  ***************************
  
  ------------------------------------------------------------------------------------------------------------------------------
                            Total      Total      Total      Total     Imperv       Perv      Total       Total     Peak  Runoff
                           Precip      Runon       Evap      Infil     Runoff     Runoff     Runoff      Runoff   Runoff   Coeff
  Subcatchment                 mm         mm         mm         mm         mm         mm         mm    10^6 ltr      CMS
  ------------------------------------------------------------------------------------------------------------------------------
  SC01                       7.37       0.00       0.00       0.00       7.28       0.00       7.28        2.40     0.58   0.988
  SC02                       7.37       0.00       0.00       0.00       7.28       0.00       7.28        1.66     0.40   0.988
  SC03                       7.37       0.00       0.00       0.00       7.30       0.00       7.30        1.31     0.34   0.991
  SC04                       7.37       0.00       0.00       0.00       7.18       0.00       7.18        0.50     0.10   0.974
  SC05                       7.37       0.00       0.00       0.00       7.27       0.00       7.27        1.13     0.27   0.988
  SC06                       7.37       0.00       0.00       0.00       7.12       0.00       7.12        2.32     0.44   0.967
  SC07                       7.37       0.00       0.00       0.00       7.18       0.00       7.18        0.34     0.07   0.974
  SC08                       7.37       0.00       0.00       0.00       7.25       0.00       7.25        2.03     0.46   0.984
  SC09                       7.37       0.00       0.00       0.00       7.23       0.00       7.23        0.50     0.11   0.981
  SC010                      7.37       0.00       0.00       0.00       7.25       0.00       7.25        0.85     0.20   0.985
  
  
  ******************
  Node Depth Summary
  ******************
  
  ---------------------------------------------------------------------------------
                                 Average  Maximum  Maximum  Time of Max    Reported
                                   Depth    Depth      HGL   Occurrence   Max Depth
  Node                 Type       Meters   Meters   Meters  days hr:min      Meters
  ---------------------------------------------------------------------------------
  J1                   JUNCTION     0.07     0.18    34.18     0  02:26        0.18
  J3                   JUNCTION     0.09     0.13    18.13     0  04:40        0.13
  CSO7                 JUNCTION     0.18     1.20    35.20     0  02:23        1.20
  J5                   JUNCTION     0.07     0.14    32.14     0  02:31        0.14
  CSO9                 JUNCTION     0.18     1.55    41.55     0  02:28        1.54
  J8                   JUNCTION     0.11     0.25    36.25     0  02:33        0.25
  CSO8                 JUNCTION     0.21     1.85    33.85     0  02:27        1.85
  J10                  JUNCTION     0.10     0.27    29.27     0  02:28        0.27
  J13                  JUNCTION     0.07     0.17    29.17     0  02:26        0.17
  J15                  JUNCTION     0.16     0.31    15.31     0  02:30        0.31
  J16                  JUNCTION     0.07     0.19    30.19     0  02:26        0.19
  CSO10                JUNCTION     0.14     1.00    31.00     0  02:21        0.97
  J12                  JUNCTION     0.27     0.45    26.45     0  07:46        0.45
  J4                   JUNCTION     0.16     1.31    34.31     0  02:23        0.75
  J6                   JUNCTION     0.05     0.07    25.07     0  05:29        0.07
  J2                   JUNCTION     0.07     0.08    25.08     0  03:49        0.08
  J19                  JUNCTION     0.14     0.17     8.17     0  02:41        0.17
  J9                   JUNCTION     0.08     0.11    29.11     0  04:30        0.11
  J14                  JUNCTION     0.09     0.15    20.15     0  06:21        0.15
  J17                  JUNCTION     0.05     0.07    20.07     0  05:30        0.07
  J7                   JUNCTION     0.09     0.22    39.22     0  02:31        0.22
  J11                  JUNCTION     0.10     0.29    31.29     0  02:29        0.29
  J18                  JUNCTION     0.06     0.16    29.16     0  02:28        0.16
  Out_to_WWTP          OUTFALL      0.14     0.17     6.17     0  03:50        0.17
  T5                   STORAGE      3.34     5.00    32.00     0  03:06        5.00
  T4                   STORAGE      3.10     4.70    31.70     0  05:16        4.70
  T6                   STORAGE      3.58     5.00    36.00     0  02:43        5.00
  T3                   STORAGE      2.96     4.46    26.46     0  07:50        4.46
  T2                   STORAGE      3.00     4.38    25.38     0  06:31        4.38
  T1                   STORAGE      3.02     5.00    15.00     0  02:39        5.00
  
  
  *******************
  Node Inflow Summary
  *******************
  
  -------------------------------------------------------------------------------------------------
                                  Maximum  Maximum                  Lateral       Total        Flow
                                  Lateral    Total  Time of Max      Inflow      Inflow     Balance
                                   Inflow   Inflow   Occurrence      Volume      Volume       Error
  Node                 Type           CMS      CMS  days hr:min    10^6 ltr    10^6 ltr     Percent
  -------------------------------------------------------------------------------------------------
  J1                   JUNCTION     0.292    0.292     0  02:26         1.7         1.7       0.030
  J3                   JUNCTION     0.000    0.181     0  04:33           0        2.74       0.962
  CSO7                 JUNCTION     0.080    0.080     0  02:31       0.631       0.631       0.075
  J5                   JUNCTION     0.105    0.176     0  02:31       0.623        1.24       0.129
  CSO9                 JUNCTION     0.116    0.116     0  02:28       0.695       0.695       0.054
  J8                   JUNCTION     0.478    0.593     0  02:32        3.26        3.95       0.137
  CSO8                 JUNCTION     0.472    0.472     0  02:27        2.32        2.32       0.015
  J10                  JUNCTION     0.352    0.811     0  02:27         1.7        4.01       0.107
  J13                  JUNCTION     0.414    0.414     0  02:26        2.12        2.12      -0.174
  J15                  JUNCTION     0.000    0.884     0  02:27           0         7.1       0.898
  J16                  JUNCTION     0.605    0.605     0  02:26        2.96        2.96      -0.001
  CSO10                JUNCTION     0.200    0.200     0  02:27       0.991       0.991       0.020
  J12                  JUNCTION     0.000    0.866     0  02:28           0        5.31       5.573
  J4                   JUNCTION     0.000    0.075     0  02:23           0       0.622       0.533
  J6                   JUNCTION     0.000    0.027     0  05:20           0       0.458       0.544
  J2                   JUNCTION     0.000    0.039     0  03:06           0        0.83       0.610
  J19                  JUNCTION     0.000    0.271     0  02:39           0        5.33       0.190
  J9                   JUNCTION     0.000    0.075     0  02:43           0        1.32       1.354
  J14                  JUNCTION     0.000    0.116     0  06:27           0        1.46       0.287
  J17                  JUNCTION     0.000    0.031     0  06:40           0       0.447       1.449
  J7                   JUNCTION     0.000    0.116     0  02:28           0       0.694       0.454
  J11                  JUNCTION     0.000    0.472     0  02:27           0        2.32       0.265
  J18                  JUNCTION     0.000    0.200     0  02:27           0       0.991       0.093
  Out_to_WWTP          OUTFALL      0.000    0.271     0  02:41           0        5.32       0.000
  T5                   STORAGE      0.000    0.292     0  02:26           0         1.7      30.709
  T4                   STORAGE      0.000    0.176     0  02:31           0        1.24      36.347
  T6                   STORAGE      0.000    0.592     0  02:33           0        3.95      24.180
  T3                   STORAGE      0.000    0.857     0  02:31           0        5.03      33.046
  T2                   STORAGE      0.000    0.414     0  02:26           0        2.13      62.977
  T1                   STORAGE      0.000    0.868     0  02:30           0        7.03       7.104
  
  
  **********************
  Node Surcharge Summary
  **********************
  
  Surcharging occurs when water rises above the top of the highest conduit.
  ---------------------------------------------------------------------
                                               Max. Height   Min. Depth
                                   Hours       Above Crown    Below Rim
  Node                 Type      Surcharged         Meters       Meters
  ---------------------------------------------------------------------
  CSO7                 JUNCTION        0.74          0.945        0.000
  CSO9                 JUNCTION        0.76          1.227        0.455
  CSO8                 JUNCTION        0.68          1.402        0.145
  CSO10                JUNCTION        0.37          0.560        0.000
  J4                   JUNCTION        0.72          1.009        0.691
  
  
  *********************
  Node Flooding Summary
  *********************
  
  Flooding refers to all water that overflows a node, whether it ponds or not.
  --------------------------------------------------------------------------
                                                             Total   Maximum
                                 Maximum   Time of Max       Flood    Ponded
                        Hours       Rate    Occurrence      Volume     Depth
  Node                 Flooded       CMS   days hr:min    10^6 ltr    Meters
  --------------------------------------------------------------------------
  CSO7                    0.41     0.009      0  02:31       0.009     0.000
  CSO10                   0.01     0.009      0  02:21       0.000     0.000
  T5                      0.71     0.091      0  03:06       0.069     0.000
  T6                      2.65     0.489      0  02:43       1.317     0.000
  T1                      1.04     0.543      0  02:39       0.858     0.000
  
  
  **********************
  Storage Volume Summary
  **********************
  
  --------------------------------------------------------------------------------------------------
                         Average     Avg  Evap Exfil       Maximum     Max    Time of Max    Maximum
                          Volume    Pcnt  Pcnt  Pcnt        Volume    Pcnt     Occurrence    Outflow
  Storage Unit           1000 m3    Full  Loss  Loss       1000 m3    Full    days hr:min        CMS
  --------------------------------------------------------------------------------------------------
  T5                       0.334      67     0     0         0.500     100       0  03:06      0.039
  T4                       0.310      62     0     0         0.470      94       0  05:16      0.027
  T6                       0.430      72     0     0         0.600     100       0  02:43      0.075
  T3                       1.539      59     0     0         2.319      89       0  07:50      0.116
  T2                       0.599      60     0     0         0.875      88       0  06:31      0.031
  T1                       0.422      60     0     0         0.700     100       0  02:39      0.271
  
  
  ***********************
  Outfall Loading Summary
  ***********************
  
  -----------------------------------------------------------
                         Flow       Avg       Max       Total
                         Freq      Flow      Flow      Volume
  Outfall Node           Pcnt       CMS       CMS    10^6 ltr
  -----------------------------------------------------------
  Out_to_WWTP           99.01     0.191     0.271       5.319
  -----------------------------------------------------------
  System                99.01     0.191     0.271       5.319
  
  
  ********************
  Link Flow Summary
  ********************
  
  -----------------------------------------------------------------------------
                                 Maximum  Time of Max   Maximum    Max/    Max/
                                  |Flow|   Occurrence   |Veloc|    Full    Full
  Link                 Type          CMS  days hr:min     m/sec    Flow   Depth
  -----------------------------------------------------------------------------
  C1                   CONDUIT     0.039     0  03:49      1.07    0.01    0.11
  C6                   CONDUIT     0.071     0  02:31      1.29    1.12    0.74
  C2                   CONDUIT     0.027     0  05:29      0.98    0.03    0.17
  C9                   CONDUIT     0.115     0  02:31      1.27    0.39    0.47
  C16                  CONDUIT     0.470     0  02:29      1.74    0.05    0.14
  C3                   CONDUIT     0.116     0  06:22      1.79    0.04    0.14
  C19                  CONDUIT     0.031     0  05:30      0.70    0.01    0.18
  C11                  CONDUIT     0.181     0  04:40      1.77    0.01    0.10
  C20                  CONDUIT     0.604     0  02:26      2.73    0.02    0.13
  C22                  CONDUIT     0.200     0  02:28      1.60    0.09    0.30
  C12                  CONDUIT     0.075     0  04:30      0.63    0.01    0.14
  C17                  CONDUIT     0.808     0  02:28      2.93    0.04    0.14
  C10                  CONDUIT     0.592     0  02:33      1.66    0.06    0.58
  C13                  CONDUIT     0.857     0  02:31      1.42    0.05    0.61
  C18                  CONDUIT     0.414     0  02:26      1.72    0.02    0.54
  C23                  CONDUIT     0.868     0  02:30      1.24    0.10    0.60
  C4                   CONDUIT     0.292     0  02:26      1.98    0.07    0.59
  C7                   CONDUIT     0.176     0  02:31      1.43    0.04    0.57
  C14                  CONDUIT     0.271     0  02:41      2.08    0.02    0.09
  C5                   CONDUIT     0.075     0  02:23      1.46    1.28    1.00
  C8                   CONDUIT     0.116     0  02:28      1.63    1.46    0.84
  C15                  CONDUIT     0.472     0  02:27      3.33    1.50    0.82
  C21                  CONDUIT     0.200     0  02:27      1.81    1.15    0.68
  V4                   ORIFICE     0.027     0  05:20                      0.35
  V5                   ORIFICE     0.039     0  03:06                      1.00
  V1                   ORIFICE     0.271     0  02:39                      1.00
  V6                   ORIFICE     0.075     0  02:43                      0.43
  V3                   ORIFICE     0.116     0  06:27                      0.65
  V2                   ORIFICE     0.031     0  06:40                      0.24
  
  
  ***************************
  Flow Classification Summary
  ***************************
  
  -------------------------------------------------------------------------------------
                      Adjusted    ---------- Fraction of Time in Flow Class ---------- 
                       /Actual         Up    Down  Sub   Sup   Up    Down  Norm  Inlet 
  Conduit               Length    Dry  Dry   Dry   Crit  Crit  Crit  Crit  Ltd   Ctrl  
  -------------------------------------------------------------------------------------
  C1                      1.00   0.00  0.00  0.00  0.00  1.00  0.00  0.00  0.94  0.00
  C6                      1.00   0.00  0.00  0.00  0.12  0.88  0.00  0.00  0.00  0.00
  C2                      1.00   0.00  0.00  0.00  0.33  0.67  0.00  0.00  0.95  0.00
  C9                      1.00   0.00  0.00  0.00  1.00  0.00  0.00  0.00  1.00  0.00
  C16                     1.00   0.00  0.00  0.00  0.58  0.42  0.00  0.00  0.47  0.00
  C3                      1.00   0.00  0.00  0.00  0.05  0.94  0.00  0.00  0.75  0.00
  C19                     1.00   0.00  0.00  0.00  1.00  0.00  0.00  0.00  1.00  0.00
  C11                     1.00   0.00  0.00  0.00  0.34  0.65  0.00  0.00  1.00  0.00
  C20                     1.00   0.00  0.00  0.00  0.55  0.45  0.00  0.00  0.98  0.00
  C22                     1.00   0.00  0.00  0.00  0.75  0.25  0.00  0.00  1.00  0.00
  C12                     1.00   0.00  0.00  0.00  1.00  0.00  0.00  0.00  1.00  0.00
  C17                     1.00   0.00  0.00  0.00  0.53  0.47  0.00  0.00  0.97  0.00
  C10                     1.00   0.00  0.00  0.00  0.96  0.04  0.00  0.00  0.98  0.00
  C13                     1.00   0.00  0.00  0.00  0.87  0.13  0.00  0.00  0.35  0.00
  C18                     1.00   0.00  0.00  0.00  0.94  0.06  0.00  0.00  0.97  0.00
  C23                     1.00   0.00  0.00  0.00  0.87  0.13  0.00  0.00  0.94  0.00
  C4                      1.00   0.00  0.00  0.00  0.96  0.04  0.00  0.00  0.98  0.00
  C7                      1.00   0.00  0.00  0.00  0.94  0.06  0.00  0.00  0.97  0.00
  C14                     1.00   0.00  0.00  0.00  0.00  0.99  0.00  0.00  0.32  0.00
  C5                      1.00   0.00  0.00  0.00  0.89  0.11  0.00  0.00  0.88  0.00
  C8                      1.00   0.00  0.00  0.00  0.13  0.87  0.00  0.00  0.00  0.00
  C15                     1.00   0.00  0.00  0.00  0.00  1.00  0.00  0.00  0.00  0.00
  C21                     1.00   0.00  0.00  0.00  0.01  0.99  0.00  0.00  0.00  0.00
  
  
  *************************
  Conduit Surcharge Summary
  *************************
  
  ----------------------------------------------------------------------------
                                                           Hours        Hours 
                         --------- Hours Full --------   Above Full   Capacity
  Conduit                Both Ends  Upstream  Dnstream   Normal Flow   Limited
  ----------------------------------------------------------------------------
  C6                          0.01      0.72      0.01      0.58         0.01
  C10                         0.01      0.01      5.74      0.01         0.01
  C13                         0.01      0.01      5.31      0.01         0.01
  C18                         0.01      0.01      5.39      0.01         0.01
  C23                         0.01      0.01      5.77      0.01         0.01
  C4                          0.01      0.01      5.92      0.01         0.01
  C7                          0.01      0.01      5.67      0.01         0.01
  C5                          0.73      0.74      0.83      0.78         0.71
  C8                          0.01      0.76      0.01      0.77         0.01
  C15                         0.01      0.68      0.01      0.74         0.01
  C21                         0.01      0.37      0.01      0.32         0.01
  

  Analysis begun on:  Fri Sep  3 17:49:07 2021
  Analysis ended on:  Fri Sep  3 17:49:07 2021
  Total elapsed time: < 1 sec