
  EPA STORM WATER MANAGEMENT MODEL - VERSION 5.1 (Build 5.3.0.dev0)
  --------------------------------------------------------------

  
  *********************************************************
  NOTE: The summary statistics displayed in this report are
  based on results found at every computational time step,  
  not just on results from each reporting time step.
  *********************************************************
  
  ****************
  Analysis Options
  ****************
  Flow Units ............... CMS
  Process Models:
    Rainfall/Runoff ........ YES
    RDII ................... NO
    Snowmelt ............... NO
    Groundwater ............ NO
    Flow Routing ........... YES
    Ponding Allowed ........ YES
    Water Quality .......... NO
  Infiltration Method ...... HORTON
  Flow Routing Method ...... DYNWAVE
  Surcharge Method ......... EXTRAN
  Starting Date ............ 08/28/2015 08:00:00
  Ending Date .............. 08/28/2015 15:50:00
  Antecedent Dry Days ...... 0.0
  Report Time Step ......... 00:01:00
  Wet Time Step ............ 00:01:00
  Dry Time Step ............ 00:01:00
  Routing Time Step ........ 5.00 sec
  Variable Time Step ....... YES
  Maximum Trials ........... 8
  Number of Threads ........ 1
  Head Tolerance ........... 0.001500 m
  
  
  **************************        Volume         Depth
  Runoff Quantity Continuity     hectare-m            mm
  **************************     ---------       -------
  Total Precipitation ......         1.277         7.084
  Evaporation Loss .........         0.000         0.000
  Infiltration Loss ........         0.000         0.000
  Surface Runoff ...........         1.254         6.957
  Final Storage ............         0.023         0.127
  Continuity Error (%) .....        -0.006
  
  
  **************************        Volume        Volume
  Flow Routing Continuity        hectare-m      10^6 ltr
  **************************     ---------     ---------
  Dry Weather Inflow .......         0.396         3.955
  Wet Weather Inflow .......         1.254        12.537
  Groundwater Inflow .......         0.000         0.000
  RDII Inflow ..............         0.000         0.000
  External Inflow ..........         0.000         0.000
  External Outflow .........         0.530         5.302
  Flooding Loss ............         0.192         1.916
  Evaporation Loss .........         0.000         0.000
  Exfiltration Loss ........         0.000         0.000
  Initial Stored Volume ....         0.000         0.000
  Final Stored Volume ......         0.702         7.021
  Continuity Error (%) .....        13.657
  
  
  *************************
  Highest Continuity Errors
  *************************
  Node T2 (40.03%)
  Node T4 (24.82%)
  Node T3 (24.60%)
  Node T5 (24.09%)
  Node T6 (20.08%)
  
  
  ***************************
  Time-Step Critical Elements
  ***************************
  None
  
  
  ********************************
  Highest Flow Instability Indexes
  ********************************
  Link C13 (1)
  
  
  *************************
  Routing Time Step Summary
  *************************
  Minimum Time Step           :     4.50 sec
  Average Time Step           :     5.00 sec
  Maximum Time Step           :     5.00 sec
  Percent in Steady State     :     0.00
  Average Iterations per Step :     2.12
  Percent Not Converging      :     0.30
  
  
  ***************************
  Subcatchment Runoff Summary
  ***************************
  
  ------------------------------------------------------------------------------------------------------------------------------
                            Total      Total      Total      Total     Imperv       Perv      Total       Total     Peak  Runoff
                           Precip      Runon       Evap      Infil     Runoff     Runoff     Runoff      Runoff   Runoff   Coeff
  Subcatchment                 mm         mm         mm         mm         mm         mm         mm    10^6 ltr      CMS
  ------------------------------------------------------------------------------------------------------------------------------
  SC01                       7.08       0.00       0.00       0.00       7.00       0.00       7.00        2.31     0.55   0.988
  SC02                       7.08       0.00       0.00       0.00       6.99       0.00       6.99        1.59     0.37   0.987
  SC03                       7.08       0.00       0.00       0.00       7.02       0.00       7.02        1.26     0.32   0.990
  SC04                       7.08       0.00       0.00       0.00       6.90       0.00       6.90        0.48     0.09   0.973
  SC05                       7.08       0.00       0.00       0.00       6.99       0.00       6.99        1.09     0.26   0.987
  SC06                       7.08       0.00       0.00       0.00       6.85       0.00       6.85        2.23     0.41   0.966
  SC07                       7.08       0.00       0.00       0.00       6.90       0.00       6.90        0.33     0.06   0.974
  SC08                       7.08       0.00       0.00       0.00       6.97       0.00       6.97        1.95     0.43   0.984
  SC09                       7.08       0.00       0.00       0.00       6.95       0.00       6.95        0.48     0.10   0.980
  SC010                      7.08       0.00       0.00       0.00       6.97       0.00       6.97        0.82     0.18   0.984
  
  
  ******************
  Node Depth Summary
  ******************
  
  ---------------------------------------------------------------------------------
                                 Average  Maximum  Maximum  Time of Max    Reported
                                   Depth    Depth      HGL   Occurrence   Max Depth
  Node                 Type       Meters   Meters   Meters  days hr:min      Meters
  ---------------------------------------------------------------------------------
  J1                   JUNCTION     0.07     0.18    34.18     0  02:20        0.18
  J3                   JUNCTION     0.09     0.13    18.13     0  04:50        0.13
  CSO7                 JUNCTION     0.16     1.20    35.20     0  02:19        1.20
  J5                   JUNCTION     0.07     0.14    32.14     0  02:25        0.14
  CSO9                 JUNCTION     0.16     1.28    41.28     0  02:22        1.28
  J8                   JUNCTION     0.11     0.24    36.24     0  02:27        0.24
  CSO8                 JUNCTION     0.19     1.57    33.57     0  02:20        1.57
  J10                  JUNCTION     0.10     0.26    29.26     0  02:22        0.26
  J13                  JUNCTION     0.06     0.17    29.17     0  02:20        0.17
  J15                  JUNCTION     0.16     0.30    15.30     0  02:24        0.30
  J16                  JUNCTION     0.07     0.19    30.19     0  02:19        0.19
  CSO10                JUNCTION     0.13     0.88    30.88     0  02:17        0.77
  J12                  JUNCTION     0.24     0.40    26.40     0  06:23        0.40
  J4                   JUNCTION     0.16     1.18    34.18     0  02:18        1.05
  J6                   JUNCTION     0.06     0.07    25.07     0  04:52        0.07
  J2                   JUNCTION     0.07     0.08    25.08     0  03:47        0.08
  J19                  JUNCTION     0.14     0.17     8.17     0  02:39        0.17
  J9                   JUNCTION     0.08     0.11    29.11     0  05:00        0.11
  J14                  JUNCTION     0.09     0.15    20.15     0  06:30        0.15
  J17                  JUNCTION     0.05     0.07    20.07     0  05:51        0.07
  J7                   JUNCTION     0.09     0.21    39.21     0  02:25        0.21
  J11                  JUNCTION     0.10     0.28    31.28     0  02:22        0.28
  J18                  JUNCTION     0.06     0.16    29.16     0  02:22        0.16
  Out_to_WWTP          OUTFALL      0.14     0.17     6.17     0  03:43        0.17
  T5                   STORAGE      3.35     5.00    32.00     0  03:16        5.00
  T4                   STORAGE      2.99     4.51    31.51     0  04:50        4.51
  T6                   STORAGE      3.57     5.00    36.00     0  02:40        5.00
  T3                   STORAGE      2.93     4.40    26.40     0  06:27        4.40
  T2                   STORAGE      2.97     4.35    25.35     0  05:44        4.35
  T1                   STORAGE      2.99     5.00    15.00     0  02:37        5.00
  
  
  *******************
  Node Inflow Summary
  *******************
  
  -------------------------------------------------------------------------------------------------
                                  Maximum  Maximum                  Lateral       Total        Flow
                                  Lateral    Total  Time of Max      Inflow      Inflow     Balance
                                   Inflow   Inflow   Occurrence      Volume      Volume       Error
  Node                 Type           CMS      CMS  days hr:min    10^6 ltr    10^6 ltr     Percent
  -------------------------------------------------------------------------------------------------
  J1                   JUNCTION     0.276    0.276     0  02:19        1.65        1.65       0.030
  J3                   JUNCTION     0.000    0.180     0  04:43           0        2.81       1.001
  CSO7                 JUNCTION     0.075    0.075     0  02:24       0.618       0.618       0.074
  J5                   JUNCTION     0.098    0.169     0  02:24       0.603        1.21       0.131
  CSO9                 JUNCTION     0.109    0.109     0  02:22       0.675       0.675       0.049
  J8                   JUNCTION     0.446    0.554     0  02:26        3.17        3.84       0.138
  CSO8                 JUNCTION     0.443    0.443     0  02:21        2.24        2.24       0.016
  J10                  JUNCTION     0.332    0.762     0  02:20        1.65        3.89       0.118
  J13                  JUNCTION     0.390    0.390     0  02:19        2.06        2.06      -0.185
  J15                  JUNCTION     0.000    0.827     0  02:21           0        6.98       0.915
  J16                  JUNCTION     0.570    0.570     0  02:19        2.86        2.86       0.001
  CSO10                JUNCTION     0.188    0.188     0  02:21       0.958       0.958       0.025
  J12                  JUNCTION     0.000    0.812     0  02:22           0        5.21       4.296
  J4                   JUNCTION     0.000    0.073     0  02:18           0       0.614       0.538
  J6                   JUNCTION     0.000    0.027     0  04:50           0       0.502       0.761
  J2                   JUNCTION     0.000    0.039     0  03:17           0       0.831       0.608
  J19                  JUNCTION     0.000    0.271     0  02:38           0        5.31       0.193
  J9                   JUNCTION     0.000    0.075     0  03:10           0        1.35       1.343
  J14                  JUNCTION     0.000    0.116     0  06:30           0        1.49       0.279
  J17                  JUNCTION     0.000    0.031     0  05:50           0       0.375       1.043
  J7                   JUNCTION     0.000    0.109     0  02:22           0       0.675       0.467
  J11                  JUNCTION     0.000    0.443     0  02:21           0        2.24       0.273
  J18                  JUNCTION     0.000    0.188     0  02:21           0       0.958       0.097
  Out_to_WWTP          OUTFALL      0.000    0.271     0  02:39           0         5.3       0.000
  T5                   STORAGE      0.000    0.276     0  02:20           0        1.65      31.741
  T4                   STORAGE      0.000    0.169     0  02:25           0        1.21      33.015
  T6                   STORAGE      0.000    0.553     0  02:27           0        3.84      25.130
  T3                   STORAGE      0.000    0.802     0  02:24           0           5      32.619
  T2                   STORAGE      0.000    0.390     0  02:20           0        2.06      66.737
  T1                   STORAGE      0.000    0.815     0  02:24           0        6.91       7.547
  
  
  **********************
  Node Surcharge Summary
  **********************
  
  Surcharging occurs when water rises above the top of the highest conduit.
  ---------------------------------------------------------------------
                                               Max. Height   Min. Depth
                                   Hours       Above Crown    Below Rim
  Node                 Type      Surcharged         Meters       Meters
  ---------------------------------------------------------------------
  CSO7                 JUNCTION        0.71          0.945        0.000
  CSO9                 JUNCTION        0.68          0.959        0.723
  CSO8                 JUNCTION        0.60          1.113        0.434
  CSO10                JUNCTION        0.28          0.437        0.123
  J4                   JUNCTION        0.70          0.885        0.815
  
  
  *********************
  Node Flooding Summary
  *********************
  
  Flooding refers to all water that overflows a node, whether it ponds or not.
  --------------------------------------------------------------------------
                                                             Total   Maximum
                                 Maximum   Time of Max       Flood    Ponded
                        Hours       Rate    Occurrence      Volume     Depth
  Node                 Flooded       CMS   days hr:min    10^6 ltr    Meters
  --------------------------------------------------------------------------
  CSO7                    0.28     0.007      0  02:19       0.003     0.000
  T5                      0.51     0.037      0  03:16       0.025     0.000
  T6                      2.63     0.480      0  02:40       1.169     0.000
  T1                      0.93     0.464      0  02:37       0.719     0.000
  
  
  **********************
  Storage Volume Summary
  **********************
  
  --------------------------------------------------------------------------------------------------
                         Average     Avg  Evap Exfil       Maximum     Max    Time of Max    Maximum
                          Volume    Pcnt  Pcnt  Pcnt        Volume    Pcnt     Occurrence    Outflow
  Storage Unit           1000 m3    Full  Loss  Loss       1000 m3    Full    days hr:min        CMS
  --------------------------------------------------------------------------------------------------
  T5                       0.335      67     0     0         0.500     100       0  03:16      0.039
  T4                       0.299      60     0     0         0.451      90       0  04:50      0.027
  T6                       0.429      71     0     0         0.600     100       0  02:40      0.075
  T3                       1.521      59     0     0         2.290      88       0  06:27      0.116
  T2                       0.595      59     0     0         0.870      87       0  05:44      0.031
  T1                       0.419      60     0     0         0.700     100       0  02:37      0.271
  
  
  ***********************
  Outfall Loading Summary
  ***********************
  
  -----------------------------------------------------------
                         Flow       Avg       Max       Total
                         Freq      Flow      Flow      Volume
  Outfall Node           Pcnt       CMS       CMS    10^6 ltr
  -----------------------------------------------------------
  Out_to_WWTP           99.01     0.190     0.271       5.302
  -----------------------------------------------------------
  System                99.01     0.190     0.271       5.302
  
  
  ********************
  Link Flow Summary
  ********************
  
  -----------------------------------------------------------------------------
                                 Maximum  Time of Max   Maximum    Max/    Max/
                                  |Flow|   Occurrence   |Veloc|    Full    Full
  Link                 Type          CMS  days hr:min     m/sec    Flow   Depth
  -----------------------------------------------------------------------------
  C1                   CONDUIT     0.039     0  03:47      1.10    0.01    0.11
  C6                   CONDUIT     0.070     0  02:25      1.29    1.12    0.73
  C2                   CONDUIT     0.027     0  04:52      0.98    0.03    0.17
  C9                   CONDUIT     0.108     0  02:25      1.25    0.37    0.45
  C16                  CONDUIT     0.441     0  02:23      1.70    0.04    0.14
  C3                   CONDUIT     0.114     0  04:43      1.78    0.04    0.14
  C19                  CONDUIT     0.028     0  05:51      0.63    0.01    0.18
  C11                  CONDUIT     0.179     0  04:50      1.74    0.01    0.10
  C20                  CONDUIT     0.569     0  02:19      2.68    0.02    0.12
  C22                  CONDUIT     0.187     0  02:22      1.57    0.08    0.29
  C12                  CONDUIT     0.075     0  05:00      0.89    0.01    0.13
  C17                  CONDUIT     0.759     0  02:22      2.87    0.04    0.14
  C10                  CONDUIT     0.553     0  02:27      1.66    0.06    0.58
  C13                  CONDUIT     0.802     0  02:24      1.41    0.05    0.60
  C18                  CONDUIT     0.390     0  02:20      1.72    0.01    0.54
  C23                  CONDUIT     0.815     0  02:24      1.24    0.09    0.60
  C4                   CONDUIT     0.276     0  02:20      1.98    0.07    0.59
  C7                   CONDUIT     0.169     0  02:25      1.43    0.04    0.57
  C14                  CONDUIT     0.271     0  02:39      2.08    0.02    0.09
  C5                   CONDUIT     0.073     0  02:18      1.42    1.24    1.00
  C8                   CONDUIT     0.109     0  02:22      1.55    1.37    0.83
  C15                  CONDUIT     0.443     0  02:21      3.16    1.41    0.81
  C21                  CONDUIT     0.188     0  02:21      1.76    1.08    0.68
  V4                   ORIFICE     0.027     0  04:50                      0.35
  V5                   ORIFICE     0.039     0  03:17                      1.00
  V1                   ORIFICE     0.271     0  02:38                      1.00
  V6                   ORIFICE     0.075     0  03:10                      0.43
  V3                   ORIFICE     0.116     0  06:30                      0.65
  V2                   ORIFICE     0.031     0  05:50                      0.24
  
  
  ***************************
  Flow Classification Summary
  ***************************
  
  -------------------------------------------------------------------------------------
                      Adjusted    ---------- Fraction of Time in Flow Class ---------- 
                       /Actual         Up    Down  Sub   Sup   Up    Down  Norm  Inlet 
  Conduit               Length    Dry  Dry   Dry   Crit  Crit  Crit  Crit  Ltd   Ctrl  
  -------------------------------------------------------------------------------------
  C1                      1.00   0.00  0.00  0.00  0.00  1.00  0.00  0.00  0.94  0.00
  C6                      1.00   0.00  0.00  0.00  0.12  0.88  0.00  0.00  0.00  0.00
  C2                      1.00   0.00  0.00  0.00  0.28  0.72  0.00  0.00  0.95  0.00
  C9                      1.00   0.00  0.00  0.00  1.00  0.00  0.00  0.00  1.00  0.00
  C16                     1.00   0.00  0.00  0.00  0.59  0.41  0.00  0.00  0.48  0.00
  C3                      1.00   0.00  0.00  0.00  0.05  0.95  0.00  0.00  0.73  0.00
  C19                     1.00   0.00  0.00  0.00  1.00  0.00  0.00  0.00  1.00  0.00
  C11                     1.00   0.00  0.00  0.00  0.34  0.66  0.00  0.00  1.00  0.00
  C20                     1.00   0.00  0.00  0.00  0.55  0.45  0.00  0.00  0.98  0.00
  C22                     1.00   0.00  0.00  0.00  0.75  0.25  0.00  0.00  1.00  0.00
  C12                     1.00   0.00  0.00  0.00  1.00  0.00  0.00  0.00  1.00  0.00
  C17                     1.00   0.00  0.00  0.00  0.50  0.50  0.00  0.00  0.95  0.00
  C10                     1.00   0.00  0.00  0.00  0.96  0.04  0.00  0.00  0.97  0.00
  C13                     1.00   0.00  0.00  0.00  0.87  0.13  0.00  0.00  0.39  0.00
  C18                     1.00   0.00  0.00  0.00  0.94  0.06  0.00  0.00  0.97  0.00
  C23                     1.00   0.00  0.00  0.00  0.87  0.13  0.00  0.00  0.94  0.00
  C4                      1.00   0.00  0.00  0.00  0.96  0.04  0.00  0.00  0.98  0.00
  C7                      1.00   0.00  0.00  0.00  0.94  0.06  0.00  0.00  0.97  0.00
  C14                     1.00   0.00  0.00  0.00  0.00  0.99  0.00  0.00  0.33  0.00
  C5                      1.00   0.00  0.00  0.00  0.89  0.11  0.00  0.00  0.89  0.00
  C8                      1.00   0.00  0.00  0.00  0.13  0.87  0.00  0.00  0.00  0.00
  C15                     1.00   0.00  0.00  0.00  0.00  1.00  0.00  0.00  0.00  0.00
  C21                     1.00   0.00  0.00  0.00  0.01  0.99  0.00  0.00  0.00  0.00
  
  
  *************************
  Conduit Surcharge Summary
  *************************
  
  ----------------------------------------------------------------------------
                                                           Hours        Hours 
                         --------- Hours Full --------   Above Full   Capacity
  Conduit                Both Ends  Upstream  Dnstream   Normal Flow   Limited
  ----------------------------------------------------------------------------
  C6                          0.01      0.70      0.01      0.47         0.01
  C10                         0.01      0.01      5.77      0.01         0.01
  C13                         0.01      0.01      5.35      0.01         0.01
  C18                         0.01      0.01      5.44      0.01         0.01
  C23                         0.01      0.01      5.79      0.01         0.01
  C4                          0.01      0.01      5.94      0.01         0.01
  C7                          0.01      0.01      5.69      0.01         0.01
  C5                          0.70      0.71      0.84      0.72         0.63
  C8                          0.01      0.68      0.01      0.67         0.01
  C15                         0.01      0.60      0.01      0.66         0.01
  C21                         0.01      0.28      0.01      0.23         0.01
  

  Analysis begun on:  Fri Sep  3 17:30:43 2021
  Analysis ended on:  Fri Sep  3 17:30:43 2021
  Total elapsed time: < 1 sec