
  EPA STORM WATER MANAGEMENT MODEL - VERSION 5.1 (Build 5.3.0.dev0)
  --------------------------------------------------------------

  
  *********************************************************
  NOTE: The summary statistics displayed in this report are
  based on results found at every computational time step,  
  not just on results from each reporting time step.
  *********************************************************
  
  ****************
  Analysis Options
  ****************
  Flow Units ............... CMS
  Process Models:
    Rainfall/Runoff ........ YES
    RDII ................... NO
    Snowmelt ............... NO
    Groundwater ............ NO
    Flow Routing ........... YES
    Ponding Allowed ........ YES
    Water Quality .......... NO
  Infiltration Method ...... HORTON
  Flow Routing Method ...... DYNWAVE
  Surcharge Method ......... EXTRAN
  Starting Date ............ 08/28/2015 08:00:00
  Ending Date .............. 08/28/2015 15:50:00
  Antecedent Dry Days ...... 0.0
  Report Time Step ......... 00:01:00
  Wet Time Step ............ 00:01:00
  Dry Time Step ............ 00:01:00
  Routing Time Step ........ 5.00 sec
  Variable Time Step ....... YES
  Maximum Trials ........... 8
  Number of Threads ........ 1
  Head Tolerance ........... 0.001500 m
  
  
  **************************        Volume         Depth
  Runoff Quantity Continuity     hectare-m            mm
  **************************     ---------       -------
  Total Precipitation ......         1.217         6.753
  Evaporation Loss .........         0.000         0.000
  Infiltration Loss ........         0.000         0.000
  Surface Runoff ...........         1.194         6.626
  Final Storage ............         0.023         0.128
  Continuity Error (%) .....        -0.018
  
  
  **************************        Volume        Volume
  Flow Routing Continuity        hectare-m      10^6 ltr
  **************************     ---------     ---------
  Dry Weather Inflow .......         0.396         3.955
  Wet Weather Inflow .......         1.194        11.939
  Groundwater Inflow .......         0.000         0.000
  RDII Inflow ..............         0.000         0.000
  External Inflow ..........         0.000         0.000
  External Outflow .........         0.558         5.575
  Flooding Loss ............         0.147         1.474
  Evaporation Loss .........         0.000         0.000
  Exfiltration Loss ........         0.000         0.000
  Initial Stored Volume ....         0.000         0.000
  Final Stored Volume ......         0.671         6.709
  Continuity Error (%) .....        13.441
  
  
  *************************
  Highest Continuity Errors
  *************************
  Node T2 (37.97%)
  Node T4 (25.73%)
  Node T5 (23.99%)
  Node T3 (23.49%)
  Node T6 (21.47%)
  
  
  ***************************
  Time-Step Critical Elements
  ***************************
  None
  
  
  ********************************
  Highest Flow Instability Indexes
  ********************************
  All links are stable.
  
  
  *************************
  Routing Time Step Summary
  *************************
  Minimum Time Step           :     4.50 sec
  Average Time Step           :     5.00 sec
  Maximum Time Step           :     5.00 sec
  Percent in Steady State     :     0.00
  Average Iterations per Step :     2.00
  Percent Not Converging      :     0.00
  
  
  ***************************
  Subcatchment Runoff Summary
  ***************************
  
  ------------------------------------------------------------------------------------------------------------------------------
                            Total      Total      Total      Total     Imperv       Perv      Total       Total     Peak  Runoff
                           Precip      Runon       Evap      Infil     Runoff     Runoff     Runoff      Runoff   Runoff   Coeff
  Subcatchment                 mm         mm         mm         mm         mm         mm         mm    10^6 ltr      CMS
  ------------------------------------------------------------------------------------------------------------------------------
  SC01                       6.75       0.00       0.00       0.00       6.67       0.00       6.67        2.20     0.49   0.988
  SC02                       6.75       0.00       0.00       0.00       6.66       0.00       6.66        1.52     0.31   0.987
  SC03                       6.75       0.00       0.00       0.00       6.69       0.00       6.69        1.20     0.34   0.990
  SC04                       6.75       0.00       0.00       0.00       6.56       0.00       6.56        0.45     0.07   0.972
  SC05                       6.75       0.00       0.00       0.00       6.66       0.00       6.66        1.04     0.21   0.987
  SC06                       6.75       0.00       0.00       0.00       6.51       0.00       6.51        2.12     0.30   0.965
  SC07                       6.75       0.00       0.00       0.00       6.57       0.00       6.57        0.31     0.05   0.972
  SC08                       6.75       0.00       0.00       0.00       6.64       0.00       6.64        1.86     0.30   0.983
  SC09                       6.75       0.00       0.00       0.00       6.61       0.00       6.61        0.46     0.07   0.979
  SC010                      6.75       0.00       0.00       0.00       6.64       0.00       6.64        0.78     0.13   0.984
  
  
  ******************
  Node Depth Summary
  ******************
  
  ---------------------------------------------------------------------------------
                                 Average  Maximum  Maximum  Time of Max    Reported
                                   Depth    Depth      HGL   Occurrence   Max Depth
  Node                 Type       Meters   Meters   Meters  days hr:min      Meters
  ---------------------------------------------------------------------------------
  J1                   JUNCTION     0.07     0.16    34.16     0  01:13        0.16
  J3                   JUNCTION     0.10     0.13    18.13     0  04:20        0.13
  CSO7                 JUNCTION     0.10     0.21    34.21     0  03:01        0.20
  J5                   JUNCTION     0.07     0.12    32.12     0  03:01        0.12
  CSO9                 JUNCTION     0.11     0.27    40.27     0  03:01        0.27
  J8                   JUNCTION     0.11     0.21    36.21     0  03:01        0.21
  CSO8                 JUNCTION     0.14     0.39    32.39     0  01:13        0.39
  J10                  JUNCTION     0.10     0.23    29.23     0  01:15        0.23
  J13                  JUNCTION     0.07     0.15    29.15     0  01:13        0.15
  J15                  JUNCTION     0.16     0.27    15.27     0  03:03        0.27
  J16                  JUNCTION     0.07     0.17    30.17     0  01:13        0.17
  CSO10                JUNCTION     0.12     0.32    30.32     0  01:13        0.32
  J12                  JUNCTION     0.15     0.25    26.25     0  03:03        0.25
  J4                   JUNCTION     0.13     0.24    33.24     0  03:03        0.24
  J6                   JUNCTION     0.05     0.07    25.07     0  06:38        0.07
  J2                   JUNCTION     0.07     0.08    25.08     0  03:54        0.08
  J19                  JUNCTION     0.14     0.17     8.17     0  02:54        0.17
  J9                   JUNCTION     0.09     0.11    29.11     0  03:30        0.11
  J14                  JUNCTION     0.10     0.15    20.15     0  07:41        0.15
  J17                  JUNCTION     0.05     0.07    20.07     0  05:20        0.07
  J7                   JUNCTION     0.09     0.17    39.17     0  03:02        0.17
  J11                  JUNCTION     0.10     0.23    31.23     0  03:01        0.23
  J18                  JUNCTION     0.06     0.13    29.13     0  01:15        0.13
  Out_to_WWTP          OUTFALL      0.14     0.17     6.17     0  03:48        0.17
  T5                   STORAGE      3.28     4.76    31.76     0  03:52        4.76
  T4                   STORAGE      2.94     4.34    31.34     0  05:55        4.34
  T6                   STORAGE      3.73     5.00    36.00     0  02:47        5.00
  T3                   STORAGE      2.87     4.20    26.20     0  07:35        4.20
  T2                   STORAGE      2.85     4.07    25.07     0  06:12        4.07
  T1                   STORAGE      3.18     5.00    15.00     0  02:52        5.00
  
  
  *******************
  Node Inflow Summary
  *******************
  
  -------------------------------------------------------------------------------------------------
                                  Maximum  Maximum                  Lateral       Total        Flow
                                  Lateral    Total  Time of Max      Inflow      Inflow     Balance
                                   Inflow   Inflow   Occurrence      Volume      Volume       Error
  Node                 Type           CMS      CMS  days hr:min    10^6 ltr    10^6 ltr     Percent
  -------------------------------------------------------------------------------------------------
  J1                   JUNCTION     0.232    0.232     0  01:13         1.6         1.6      -0.019
  J3                   JUNCTION     0.000    0.174     0  04:20           0        2.95       1.241
  CSO7                 JUNCTION     0.058    0.058     0  03:01       0.602       0.602       0.079
  J5                   JUNCTION     0.072    0.126     0  03:01        0.58        1.18       0.103
  CSO9                 JUNCTION     0.077    0.077     0  03:01       0.652       0.652       0.065
  J8                   JUNCTION     0.343    0.416     0  03:01        3.06        3.71       0.100
  CSO8                 JUNCTION     0.315    0.315     0  01:13        2.15        2.15       0.022
  J10                  JUNCTION     0.353    0.571     0  01:14        1.59        3.73       0.114
  J13                  JUNCTION     0.329    0.329     0  01:13        1.98        1.98      -0.266
  J15                  JUNCTION     0.000    0.650     0  03:01           0        7.04       1.120
  J16                  JUNCTION     0.503    0.503     0  01:13        2.75        2.75      -0.035
  CSO10                JUNCTION     0.137    0.137     0  01:13       0.919       0.919       0.040
  J12                  JUNCTION     0.000    0.591     0  01:16           0        5.08       1.288
  J4                   JUNCTION     0.000    0.057     0  03:01           0       0.602       0.624
  J6                   JUNCTION     0.000    0.026     0  06:00           0       0.463       0.826
  J2                   JUNCTION     0.000    0.038     0  03:52           0       0.836       0.596
  J19                  JUNCTION     0.000    0.271     0  02:53           0        5.59       0.184
  J9                   JUNCTION     0.000    0.075     0  03:00           0        1.36       0.662
  J14                  JUNCTION     0.000    0.113     0  07:40           0        1.67       0.413
  J17                  JUNCTION     0.000    0.030     0  06:20           0       0.453       1.378
  J7                   JUNCTION     0.000    0.076     0  03:01           0       0.652       0.501
  J11                  JUNCTION     0.000    0.313     0  01:13           0        2.15       0.310
  J18                  JUNCTION     0.000    0.134     0  01:13           0       0.919       0.075
  Out_to_WWTP          OUTFALL      0.000    0.271     0  02:54           0        5.58       0.000
  T5                   STORAGE      0.000    0.225     0  01:13           0         1.6      31.558
  T4                   STORAGE      0.000    0.125     0  03:01           0        1.18      34.641
  T6                   STORAGE      0.000    0.410     0  03:01           0        3.71      27.340
  T3                   STORAGE      0.000    0.548     0  03:03           0        5.02      30.707
  T2                   STORAGE      0.000    0.320     0  01:13           0        1.99      61.200
  T1                   STORAGE      0.000    0.624     0  03:03           0        6.96       7.568
  
  
  **********************
  Node Surcharge Summary
  **********************
  
  No nodes were surcharged.
  
  
  *********************
  Node Flooding Summary
  *********************
  
  Flooding refers to all water that overflows a node, whether it ponds or not.
  --------------------------------------------------------------------------
                                                             Total   Maximum
                                 Maximum   Time of Max       Flood    Ponded
                        Hours       Rate    Occurrence      Volume     Depth
  Node                 Flooded       CMS   days hr:min    10^6 ltr    Meters
  --------------------------------------------------------------------------
  T6                      2.69     0.334      0  03:01       0.985     0.000
  T1                      0.80     0.354      0  03:03       0.490     0.000
  
  
  **********************
  Storage Volume Summary
  **********************
  
  --------------------------------------------------------------------------------------------------
                         Average     Avg  Evap Exfil       Maximum     Max    Time of Max    Maximum
                          Volume    Pcnt  Pcnt  Pcnt        Volume    Pcnt     Occurrence    Outflow
  Storage Unit           1000 m3    Full  Loss  Loss       1000 m3    Full    days hr:min        CMS
  --------------------------------------------------------------------------------------------------
  T5                       0.328      66     0     0         0.476      95       0  03:52      0.038
  T4                       0.294      59     0     0         0.434      87       0  05:55      0.026
  T6                       0.447      75     0     0         0.600     100       0  02:47      0.075
  T3                       1.490      57     0     0         2.185      84       0  07:35      0.113
  T2                       0.570      57     0     0         0.815      81       0  06:12      0.030
  T1                       0.445      64     0     0         0.700     100       0  02:52      0.271
  
  
  ***********************
  Outfall Loading Summary
  ***********************
  
  -----------------------------------------------------------
                         Flow       Avg       Max       Total
                         Freq      Flow      Flow      Volume
  Outfall Node           Pcnt       CMS       CMS    10^6 ltr
  -----------------------------------------------------------
  Out_to_WWTP           99.01     0.200     0.271       5.575
  -----------------------------------------------------------
  System                99.01     0.200     0.271       5.575
  
  
  ********************
  Link Flow Summary
  ********************
  
  -----------------------------------------------------------------------------
                                 Maximum  Time of Max   Maximum    Max/    Max/
                                  |Flow|   Occurrence   |Veloc|    Full    Full
  Link                 Type          CMS  days hr:min     m/sec    Flow   Depth
  -----------------------------------------------------------------------------
  C1                   CONDUIT     0.038     0  03:54      1.06    0.01    0.10
  C6                   CONDUIT     0.055     0  03:03      1.26    0.88    0.60
  C2                   CONDUIT     0.026     0  06:38      0.98    0.03    0.17
  C9                   CONDUIT     0.074     0  03:02      1.10    0.25    0.38
  C16                  CONDUIT     0.292     0  03:02      1.51    0.03    0.11
  C3                   CONDUIT     0.113     0  07:42      1.77    0.04    0.14
  C19                  CONDUIT     0.030     0  05:20      0.69    0.01    0.16
  C11                  CONDUIT     0.174     0  04:20      1.72    0.01    0.10
  C20                  CONDUIT     0.488     0  01:13      3.30    0.02    0.10
  C22                  CONDUIT     0.127     0  01:15      1.48    0.06    0.25
  C12                  CONDUIT     0.075     0  03:30      1.03    0.01    0.09
  C17                  CONDUIT     0.569     0  01:16      2.91    0.03    0.12
  C10                  CONDUIT     0.410     0  03:01      1.66    0.04    0.57
  C13                  CONDUIT     0.548     0  03:03      2.04    0.03    0.56
  C18                  CONDUIT     0.320     0  01:13      1.72    0.01    0.53
  C23                  CONDUIT     0.624     0  03:03      1.78    0.07    0.59
  C4                   CONDUIT     0.225     0  01:13      1.98    0.05    0.57
  C7                   CONDUIT     0.125     0  03:01      1.43    0.03    0.56
  C14                  CONDUIT     0.271     0  02:54      2.08    0.02    0.09
  C5                   CONDUIT     0.057     0  03:01      1.26    0.98    0.86
  C8                   CONDUIT     0.076     0  03:01      1.38    0.96    0.70
  C15                  CONDUIT     0.313     0  01:13      2.75    0.99    0.67
  C21                  CONDUIT     0.134     0  01:13      1.75    0.77    0.50
  V4                   ORIFICE     0.026     0  06:00                      0.35
  V5                   ORIFICE     0.038     0  03:52                      1.00
  V1                   ORIFICE     0.271     0  02:53                      1.00
  V6                   ORIFICE     0.075     0  03:00                      0.43
  V3                   ORIFICE     0.113     0  07:40                      0.65
  V2                   ORIFICE     0.030     0  06:20                      0.24
  
  
  ***************************
  Flow Classification Summary
  ***************************
  
  -------------------------------------------------------------------------------------
                      Adjusted    ---------- Fraction of Time in Flow Class ---------- 
                       /Actual         Up    Down  Sub   Sup   Up    Down  Norm  Inlet 
  Conduit               Length    Dry  Dry   Dry   Crit  Crit  Crit  Crit  Ltd   Ctrl  
  -------------------------------------------------------------------------------------
  C1                      1.00   0.00  0.00  0.00  0.01  0.98  0.00  0.00  0.94  0.00
  C6                      1.00   0.00  0.00  0.00  0.01  0.99  0.00  0.00  0.00  0.00
  C2                      1.00   0.00  0.00  0.00  0.46  0.53  0.00  0.00  0.95  0.00
  C9                      1.00   0.00  0.00  0.00  0.98  0.02  0.00  0.00  1.00  0.00
  C16                     1.00   0.00  0.00  0.00  0.55  0.45  0.00  0.00  0.45  0.00
  C3                      1.00   0.00  0.00  0.00  0.05  0.95  0.00  0.00  0.61  0.00
  C19                     1.00   0.00  0.00  0.00  1.00  0.00  0.00  0.00  1.00  0.00
  C11                     1.00   0.00  0.00  0.00  0.35  0.65  0.00  0.00  1.00  0.00
  C20                     1.00   0.00  0.00  0.00  0.55  0.45  0.00  0.00  0.97  0.00
  C22                     1.00   0.00  0.00  0.00  0.72  0.28  0.00  0.00  1.00  0.00
  C12                     1.00   0.00  0.00  0.00  0.84  0.16  0.00  0.00  1.00  0.00
  C17                     1.00   0.00  0.00  0.00  0.34  0.66  0.00  0.00  0.94  0.00
  C10                     1.00   0.00  0.00  0.00  0.96  0.04  0.00  0.00  0.97  0.00
  C13                     1.00   0.00  0.00  0.00  0.85  0.15  0.00  0.00  0.55  0.00
  C18                     1.00   0.00  0.00  0.00  0.93  0.07  0.00  0.00  0.97  0.00
  C23                     1.00   0.00  0.00  0.00  0.84  0.16  0.00  0.00  0.94  0.00
  C4                      1.00   0.00  0.00  0.00  0.96  0.04  0.00  0.00  0.98  0.00
  C7                      1.00   0.00  0.00  0.00  0.94  0.06  0.00  0.00  0.97  0.00
  C14                     1.00   0.00  0.00  0.00  0.00  0.99  0.00  0.00  0.32  0.00
  C5                      1.00   0.00  0.00  0.00  0.94  0.06  0.00  0.00  0.96  0.00
  C8                      1.00   0.00  0.00  0.00  0.04  0.96  0.00  0.00  0.00  0.00
  C15                     1.00   0.00  0.00  0.00  0.00  1.00  0.00  0.00  0.00  0.00
  C21                     1.00   0.00  0.00  0.00  0.00  1.00  0.00  0.00  0.00  0.00
  
  
  *************************
  Conduit Surcharge Summary
  *************************
  
  ----------------------------------------------------------------------------
                                                           Hours        Hours 
                         --------- Hours Full --------   Above Full   Capacity
  Conduit                Both Ends  Upstream  Dnstream   Normal Flow   Limited
  ----------------------------------------------------------------------------
  C10                         0.01      0.01      6.21      0.01         0.01
  C13                         0.01      0.01      5.43      0.01         0.01
  C18                         0.01      0.01      5.50      0.01         0.01
  C23                         0.01      0.01      6.31      0.01         0.01
  C4                          0.01      0.01      6.43      0.01         0.01
  C7                          0.01      0.01      6.11      0.01         0.01
  

  Analysis begun on:  Fri Sep  3 17:50:52 2021
  Analysis ended on:  Fri Sep  3 17:50:52 2021
  Total elapsed time: < 1 sec