
  EPA STORM WATER MANAGEMENT MODEL - VERSION 5.1 (Build 5.3.0.dev0)
  --------------------------------------------------------------

  
  *********************************************************
  NOTE: The summary statistics displayed in this report are
  based on results found at every computational time step,  
  not just on results from each reporting time step.
  *********************************************************
  
  ****************
  Analysis Options
  ****************
  Flow Units ............... CMS
  Process Models:
    Rainfall/Runoff ........ YES
    RDII ................... NO
    Snowmelt ............... NO
    Groundwater ............ NO
    Flow Routing ........... YES
    Ponding Allowed ........ YES
    Water Quality .......... NO
  Infiltration Method ...... HORTON
  Flow Routing Method ...... DYNWAVE
  Surcharge Method ......... EXTRAN
  Starting Date ............ 08/28/2015 08:00:00
  Ending Date .............. 08/28/2015 15:50:00
  Antecedent Dry Days ...... 0.0
  Report Time Step ......... 00:01:00
  Wet Time Step ............ 00:01:00
  Dry Time Step ............ 00:01:00
  Routing Time Step ........ 5.00 sec
  Variable Time Step ....... YES
  Maximum Trials ........... 8
  Number of Threads ........ 1
  Head Tolerance ........... 0.001500 m
  
  
  **************************        Volume         Depth
  Runoff Quantity Continuity     hectare-m            mm
  **************************     ---------       -------
  Total Precipitation ......         2.505        13.899
  Evaporation Loss .........         0.000         0.000
  Infiltration Loss ........         0.000         0.000
  Surface Runoff ...........         2.481        13.771
  Final Storage ............         0.023         0.130
  Continuity Error (%) .....        -0.013
  
  
  **************************        Volume        Volume
  Flow Routing Continuity        hectare-m      10^6 ltr
  **************************     ---------     ---------
  Dry Weather Inflow .......         0.396         3.955
  Wet Weather Inflow .......         2.481        24.815
  Groundwater Inflow .......         0.000         0.000
  RDII Inflow ..............         0.000         0.000
  External Inflow ..........         0.000         0.000
  External Outflow .........         0.596         5.960
  Flooding Loss ............         1.211        12.109
  Evaporation Loss .........         0.000         0.000
  Exfiltration Loss ........         0.000         0.000
  Initial Stored Volume ....         0.000         0.000
  Final Stored Volume ......         0.811         8.113
  Continuity Error (%) .....         8.998
  
  
  *************************
  Highest Continuity Errors
  *************************
  Node T2 (25.83%)
  Node T3 (19.86%)
  Node T4 (17.77%)
  Node T5 (14.47%)
  Node T6 (12.94%)
  
  
  ***************************
  Time-Step Critical Elements
  ***************************
  None
  
  
  ********************************
  Highest Flow Instability Indexes
  ********************************
  Link C13 (1)
  
  
  *************************
  Routing Time Step Summary
  *************************
  Minimum Time Step           :     4.50 sec
  Average Time Step           :     5.00 sec
  Maximum Time Step           :     5.00 sec
  Percent in Steady State     :     0.00
  Average Iterations per Step :     2.19
  Percent Not Converging      :     0.59
  
  
  ***************************
  Subcatchment Runoff Summary
  ***************************
  
  ------------------------------------------------------------------------------------------------------------------------------
                            Total      Total      Total      Total     Imperv       Perv      Total       Total     Peak  Runoff
                           Precip      Runon       Evap      Infil     Runoff     Runoff     Runoff      Runoff   Runoff   Coeff
  Subcatchment                 mm         mm         mm         mm         mm         mm         mm    10^6 ltr      CMS
  ------------------------------------------------------------------------------------------------------------------------------
  SC01                      13.90       0.00       0.00       0.00      13.81       0.00      13.81        4.56     1.48   0.994
  SC02                      13.90       0.00       0.00       0.00      13.81       0.00      13.81        3.14     1.00   0.994
  SC03                      13.90       0.00       0.00       0.00      13.83       0.00      13.83        2.49     0.86   0.995
  SC04                      13.90       0.00       0.00       0.00      13.71       0.00      13.71        0.95     0.25   0.986
  SC05                      13.90       0.00       0.00       0.00      13.81       0.00      13.81        2.15     0.69   0.994
  SC06                      13.90       0.00       0.00       0.00      13.66       0.00      13.66        4.44     1.09   0.982
  SC07                      13.90       0.00       0.00       0.00      13.71       0.00      13.71        0.65     0.17   0.986
  SC08                      13.90       0.00       0.00       0.00      13.78       0.00      13.78        3.86     1.16   0.992
  SC09                      13.90       0.00       0.00       0.00      13.76       0.00      13.76        0.95     0.27   0.990
  SC010                     13.90       0.00       0.00       0.00      13.79       0.00      13.79        1.62     0.49   0.992
  
  
  ******************
  Node Depth Summary
  ******************
  
  ---------------------------------------------------------------------------------
                                 Average  Maximum  Maximum  Time of Max    Reported
                                   Depth    Depth      HGL   Occurrence   Max Depth
  Node                 Type       Meters   Meters   Meters  days hr:min      Meters
  ---------------------------------------------------------------------------------
  J1                   JUNCTION     0.09     0.28    34.28     0  01:36        0.28
  J3                   JUNCTION     0.10     0.14    18.14     0  05:22        0.14
  CSO7                 JUNCTION     0.30     1.20    35.20     0  01:22        1.20
  J5                   JUNCTION     0.08     0.19    32.19     0  01:41        0.19
  CSO9                 JUNCTION     0.33     2.00    42.00     0  01:21        2.00
  J8                   JUNCTION     0.13     0.36    36.36     0  01:43        0.36
  CSO8                 JUNCTION     0.33     2.00    34.00     0  01:19        2.00
  J10                  JUNCTION     0.12     0.35    29.35     0  01:35        0.35
  J13                  JUNCTION     0.08     0.27    29.27     0  01:36        0.27
  J15                  JUNCTION     0.19     0.45    15.45     0  01:39        0.45
  J16                  JUNCTION     0.08     0.29    30.29     0  01:35        0.29
  CSO10                JUNCTION     0.20     1.00    31.00     0  01:18        1.00
  J12                  JUNCTION     0.72     1.07    27.07     0  03:01        1.07
  J4                   JUNCTION     0.23     1.44    34.44     0  01:23        0.76
  J6                   JUNCTION     0.06     0.07    25.07     0  04:10        0.07
  J2                   JUNCTION     0.07     0.08    25.08     0  02:33        0.08
  J19                  JUNCTION     0.14     0.17     8.17     0  01:40        0.17
  J9                   JUNCTION     0.09     0.11    29.11     0  02:30        0.11
  J14                  JUNCTION     0.11     0.15    20.15     0  06:41        0.15
  J17                  JUNCTION     0.05     0.08    20.08     0  04:00        0.08
  J7                   JUNCTION     0.10     0.23    39.23     0  01:57        0.23
  J11                  JUNCTION     0.12     0.30    31.30     0  01:57        0.30
  J18                  JUNCTION     0.07     0.16    29.16     0  01:56        0.16
  Out_to_WWTP          OUTFALL      0.14     0.17     6.17     0  03:52        0.17
  T5                   STORAGE      3.87     5.00    32.00     0  01:44        5.00
  T4                   STORAGE      3.83     5.00    32.00     0  02:23        5.00
  T6                   STORAGE      4.05     5.00    36.00     0  01:43        5.00
  T3                   STORAGE      3.81     5.00    27.00     0  02:56        5.00
  T2                   STORAGE      3.98     5.00    26.00     0  02:01        5.00
  T1                   STORAGE      3.60     5.00    15.00     0  01:38        5.00
  
  
  *******************
  Node Inflow Summary
  *******************
  
  -------------------------------------------------------------------------------------------------
                                  Maximum  Maximum                  Lateral       Total        Flow
                                  Lateral    Total  Time of Max      Inflow      Inflow     Balance
                                   Inflow   Inflow   Occurrence      Volume      Volume       Error
  Node                 Type           CMS      CMS  days hr:min    10^6 ltr    10^6 ltr     Percent
  -------------------------------------------------------------------------------------------------
  J1                   JUNCTION     0.705    0.705     0  01:36        2.72        2.72      -0.008
  J3                   JUNCTION     0.000    0.190     0  05:12           0        3.42       0.863
  CSO7                 JUNCTION     0.180    0.180     0  01:41       0.942       0.942       0.059
  J5                   JUNCTION     0.251    0.324     0  01:41        1.07        1.86       0.062
  CSO9                 JUNCTION     0.277    0.277     0  01:38        1.15        1.15       0.038
  J8                   JUNCTION     1.115    1.243     0  01:43        5.39        6.35       0.061
  CSO8                 JUNCTION     1.168    1.168     0  01:37        4.15        4.15       0.006
  J10                  JUNCTION     0.870    1.355     0  01:34        2.88         6.2      -0.039
  J13                  JUNCTION     1.019    1.019     0  01:35        3.61        3.61      -0.208
  J15                  JUNCTION     0.000    1.787     0  01:36           0        10.4       0.602
  J16                  JUNCTION     1.499    1.499     0  01:35        5.11        5.11      -0.038
  CSO10                JUNCTION     0.495    0.495     0  01:37        1.76        1.76       0.014
  J12                  JUNCTION     0.000    1.397     0  01:35           0        7.62      10.557
  J4                   JUNCTION     0.000    0.081     0  01:22           0       0.787       0.414
  J6                   JUNCTION     0.000    0.028     0  02:23           0       0.562       0.708
  J2                   JUNCTION     0.000    0.039     0  01:44           0       0.912       0.555
  J19                  JUNCTION     0.000    0.271     0  01:39           0        5.97       0.182
  J9                   JUNCTION     0.000    0.075     0  01:43           0        1.43       0.564
  J14                  JUNCTION     0.000    0.124     0  05:10           0        1.96       0.220
  J17                  JUNCTION     0.000    0.033     0  02:20           0        0.54       0.857
  J7                   JUNCTION     0.000    0.127     0  01:57           0       0.969       0.327
  J11                  JUNCTION     0.000    0.487     0  01:56           0        3.33       0.210
  J18                  JUNCTION     0.000    0.202     0  01:56           0         1.4       0.044
  Out_to_WWTP          OUTFALL      0.000    0.271     0  01:40           0        5.96       0.000
  T5                   STORAGE      0.000    0.705     0  01:36           0        2.72      16.914
  T4                   STORAGE      0.000    0.324     0  01:41           0        1.86      21.606
  T6                   STORAGE      0.000    1.241     0  01:43           0        6.35      14.861
  T3                   STORAGE      0.000    1.382     0  01:37           0        6.89      24.779
  T2                   STORAGE      0.000    1.019     0  01:36           0        3.62      34.817
  T1                   STORAGE      0.000    1.759     0  01:39           0        10.4       5.569
  
  
  **********************
  Node Surcharge Summary
  **********************
  
  Surcharging occurs when water rises above the top of the highest conduit.
  ---------------------------------------------------------------------
                                               Max. Height   Min. Depth
                                   Hours       Above Crown    Below Rim
  Node                 Type      Surcharged         Meters       Meters
  ---------------------------------------------------------------------
  CSO7                 JUNCTION        1.79          0.945        0.000
  CSO9                 JUNCTION        1.79          1.682        0.000
  CSO8                 JUNCTION        1.32          1.547        0.000
  CSO10                JUNCTION        0.76          0.560        0.000
  J4                   JUNCTION        1.77          1.141        0.559
  
  
  *********************
  Node Flooding Summary
  *********************
  
  Flooding refers to all water that overflows a node, whether it ponds or not.
  --------------------------------------------------------------------------
                                                             Total   Maximum
                                 Maximum   Time of Max       Flood    Ponded
                        Hours       Rate    Occurrence      Volume     Depth
  Node                 Flooded       CMS   days hr:min    10^6 ltr    Meters
  --------------------------------------------------------------------------
  CSO7                    0.94     0.107      0  01:41       0.154     0.000
  CSO9                    0.61     0.149      0  01:38       0.176     0.000
  CSO8                    0.63     0.683      0  01:37       0.823     0.000
  CSO10                   0.64     0.293      0  01:37       0.355     0.000
  T5                      2.14     0.545      0  01:44       1.011     0.000
  T4                      2.38     0.143      0  03:01       0.512     0.000
  T6                      3.61     1.164      0  01:43       3.510     0.000
  T3                      1.64     1.104      0  03:04       1.007     0.000
  T2                      2.67     0.292      0  02:01       1.162     0.000
  T1                      2.09     1.489      0  01:38       3.399     0.000
  
  
  **********************
  Storage Volume Summary
  **********************
  
  --------------------------------------------------------------------------------------------------
                         Average     Avg  Evap Exfil       Maximum     Max    Time of Max    Maximum
                          Volume    Pcnt  Pcnt  Pcnt        Volume    Pcnt     Occurrence    Outflow
  Storage Unit           1000 m3    Full  Loss  Loss       1000 m3    Full    days hr:min        CMS
  --------------------------------------------------------------------------------------------------
  T5                       0.387      77     0     0         0.500     100       0  01:44      0.039
  T4                       0.383      77     0     0         0.500     100       0  02:23      0.028
  T6                       0.486      81     0     0         0.600     100       0  01:43      0.075
  T3                       1.983      76     0     0         2.600     100       0  02:56      0.141
  T2                       0.797      80     0     0         1.000     100       0  02:01      0.033
  T1                       0.504      72     0     0         0.700     100       0  01:38      0.271
  
  
  ***********************
  Outfall Loading Summary
  ***********************
  
  -----------------------------------------------------------
                         Flow       Avg       Max       Total
                         Freq      Flow      Flow      Volume
  Outfall Node           Pcnt       CMS       CMS    10^6 ltr
  -----------------------------------------------------------
  Out_to_WWTP           99.01     0.213     0.271       5.960
  -----------------------------------------------------------
  System                99.01     0.213     0.271       5.960
  
  
  ********************
  Link Flow Summary
  ********************
  
  -----------------------------------------------------------------------------
                                 Maximum  Time of Max   Maximum    Max/    Max/
                                  |Flow|   Occurrence   |Veloc|    Full    Full
  Link                 Type          CMS  days hr:min     m/sec    Flow   Depth
  -----------------------------------------------------------------------------
  C1                   CONDUIT     0.039     0  02:33      1.10    0.01    0.11
  C6                   CONDUIT     0.073     0  01:41      1.29    1.16    0.82
  C2                   CONDUIT     0.028     0  04:10      1.01    0.03    0.18
  C9                   CONDUIT     0.127     0  01:57      1.30    0.43    0.59
  C16                  CONDUIT     0.486     0  01:48      1.82    0.05    0.16
  C3                   CONDUIT     0.124     0  05:12      1.82    0.05    0.14
  C19                  CONDUIT     0.033     0  04:00      0.66    0.01    0.25
  C11                  CONDUIT     0.190     0  05:22      1.77    0.01    0.14
  C20                  CONDUIT     1.498     0  01:35      3.83    0.05    0.18
  C22                  CONDUIT     0.202     0  01:56      1.63    0.09    0.38
  C12                  CONDUIT     0.075     0  02:30      0.52    0.01    0.30
  C17                  CONDUIT     1.349     0  01:35      3.45    0.07    0.33
  C10                  CONDUIT     1.241     0  01:43      1.66    0.13    0.62
  C13                  CONDUIT     1.382     0  01:37      2.13    0.08    0.77
  C18                  CONDUIT     1.019     0  01:36      1.72    0.04    0.57
  C23                  CONDUIT     1.759     0  01:39      1.67    0.19    0.65
  C4                   CONDUIT     0.705     0  01:36      1.98    0.17    0.64
  C7                   CONDUIT     0.324     0  01:41      1.43    0.08    0.60
  C14                  CONDUIT     0.271     0  01:40      2.08    0.02    0.09
  C5                   CONDUIT     0.081     0  01:22      1.58    1.39    1.00
  C8                   CONDUIT     0.127     0  01:57      1.78    1.60    0.86
  C15                  CONDUIT     0.487     0  01:56      3.47    1.55    0.83
  C21                  CONDUIT     0.202     0  01:56      1.85    1.16    0.69
  V4                   ORIFICE     0.028     0  02:23                      0.35
  V5                   ORIFICE     0.039     0  01:44                      1.00
  V1                   ORIFICE     0.271     0  01:39                      1.00
  V6                   ORIFICE     0.075     0  01:43                      0.43
  V3                   ORIFICE     0.124     0  05:10                      0.65
  V2                   ORIFICE     0.033     0  02:20                      0.24
  
  
  ***************************
  Flow Classification Summary
  ***************************
  
  -------------------------------------------------------------------------------------
                      Adjusted    ---------- Fraction of Time in Flow Class ---------- 
                       /Actual         Up    Down  Sub   Sup   Up    Down  Norm  Inlet 
  Conduit               Length    Dry  Dry   Dry   Crit  Crit  Crit  Crit  Ltd   Ctrl  
  -------------------------------------------------------------------------------------
  C1                      1.00   0.00  0.00  0.00  0.07  0.93  0.00  0.00  0.94  0.00
  C6                      1.00   0.00  0.00  0.00  0.25  0.75  0.00  0.00  0.00  0.00
  C2                      1.00   0.00  0.00  0.00  0.43  0.56  0.00  0.00  0.95  0.00
  C9                      1.00   0.00  0.00  0.00  1.00  0.00  0.00  0.00  1.00  0.00
  C16                     1.00   0.00  0.00  0.00  0.55  0.45  0.00  0.00  0.49  0.00
  C3                      1.00   0.00  0.00  0.00  0.05  0.95  0.00  0.00  0.55  0.00
  C19                     1.00   0.00  0.00  0.00  1.00  0.00  0.00  0.00  1.00  0.00
  C11                     1.00   0.00  0.00  0.00  0.35  0.65  0.00  0.00  1.00  0.00
  C20                     1.00   0.00  0.00  0.00  0.55  0.45  0.00  0.00  0.97  0.00
  C22                     1.00   0.00  0.00  0.00  0.76  0.24  0.00  0.00  1.00  0.00
  C12                     1.00   0.00  0.00  0.00  1.00  0.00  0.00  0.00  1.00  0.00
  C17                     1.00   0.00  0.00  0.00  0.69  0.31  0.00  0.00  0.93  0.00
  C10                     1.00   0.00  0.00  0.00  0.96  0.04  0.00  0.00  0.97  0.00
  C13                     1.00   0.00  0.00  0.00  0.85  0.15  0.00  0.00  0.19  0.00
  C18                     1.00   0.00  0.00  0.00  0.93  0.07  0.00  0.00  0.97  0.00
  C23                     1.00   0.00  0.00  0.00  0.84  0.16  0.00  0.00  0.94  0.00
  C4                      1.00   0.00  0.00  0.00  0.96  0.04  0.00  0.00  0.98  0.00
  C7                      1.00   0.00  0.00  0.00  0.94  0.06  0.00  0.00  0.97  0.00
  C14                     1.00   0.00  0.00  0.00  0.00  0.99  0.00  0.00  0.17  0.00
  C5                      1.00   0.00  0.00  0.00  0.93  0.07  0.00  0.00  0.72  0.00
  C8                      1.00   0.00  0.00  0.00  0.24  0.76  0.00  0.00  0.00  0.00
  C15                     1.00   0.00  0.00  0.00  0.00  1.00  0.00  0.00  0.00  0.00
  C21                     1.00   0.00  0.00  0.00  0.01  0.99  0.00  0.00  0.00  0.00
  
  
  *************************
  Conduit Surcharge Summary
  *************************
  
  ----------------------------------------------------------------------------
                                                           Hours        Hours 
                         --------- Hours Full --------   Above Full   Capacity
  Conduit                Both Ends  Upstream  Dnstream   Normal Flow   Limited
  ----------------------------------------------------------------------------
  C6                          0.01      1.77      0.01      1.67         0.01
  C10                         0.01      0.01      6.38      0.01         0.01
  C13                         0.01      0.01      6.15      0.01         0.01
  C18                         0.01      0.01      6.28      0.01         0.01
  C23                         0.01      0.01      6.41      0.01         0.01
  C4                          0.01      0.01      6.48      0.01         0.01
  C7                          0.01      0.01      6.34      0.01         0.01
  C5                          1.76      1.79      1.86      1.80         1.73
  C8                          0.01      1.79      0.01      1.80         0.01
  C15                         0.01      1.32      0.01      1.58         0.01
  C21                         0.01      0.76      0.01      0.73         0.01
  

  Analysis begun on:  Fri Sep  3 17:51:11 2021
  Analysis ended on:  Fri Sep  3 17:51:12 2021
  Total elapsed time: 00:00:01