
  EPA STORM WATER MANAGEMENT MODEL - VERSION 5.1 (Build 5.3.0.dev0)
  --------------------------------------------------------------

  
  *********************************************************
  NOTE: The summary statistics displayed in this report are
  based on results found at every computational time step,  
  not just on results from each reporting time step.
  *********************************************************
  
  ****************
  Analysis Options
  ****************
  Flow Units ............... CMS
  Process Models:
    Rainfall/Runoff ........ YES
    RDII ................... NO
    Snowmelt ............... NO
    Groundwater ............ NO
    Flow Routing ........... YES
    Ponding Allowed ........ YES
    Water Quality .......... NO
  Infiltration Method ...... HORTON
  Flow Routing Method ...... DYNWAVE
  Surcharge Method ......... EXTRAN
  Starting Date ............ 08/28/2015 08:00:00
  Ending Date .............. 08/28/2015 15:50:00
  Antecedent Dry Days ...... 0.0
  Report Time Step ......... 00:01:00
  Wet Time Step ............ 00:01:00
  Dry Time Step ............ 00:01:00
  Routing Time Step ........ 5.00 sec
  Variable Time Step ....... YES
  Maximum Trials ........... 8
  Number of Threads ........ 1
  Head Tolerance ........... 0.001500 m
  
  
  **************************        Volume         Depth
  Runoff Quantity Continuity     hectare-m            mm
  **************************     ---------       -------
  Total Precipitation ......         2.032        11.276
  Evaporation Loss .........         0.000         0.000
  Infiltration Loss ........         0.000         0.000
  Surface Runoff ...........         2.008        11.143
  Final Storage ............         0.024         0.134
  Continuity Error (%) .....        -0.009
  
  
  **************************        Volume        Volume
  Flow Routing Continuity        hectare-m      10^6 ltr
  **************************     ---------     ---------
  Dry Weather Inflow .......         0.396         3.955
  Wet Weather Inflow .......         2.008        20.079
  Groundwater Inflow .......         0.000         0.000
  RDII Inflow ..............         0.000         0.000
  External Inflow ..........         0.000         0.000
  External Outflow .........         0.556         5.559
  Flooding Loss ............         0.774         7.742
  Evaporation Loss .........         0.000         0.000
  Exfiltration Loss ........         0.000         0.000
  Initial Stored Volume ....         0.000         0.000
  Final Stored Volume ......         0.813         8.132
  Continuity Error (%) .....        10.826
  
  
  *************************
  Highest Continuity Errors
  *************************
  Node T2 (30.57%)
  Node T4 (21.80%)
  Node T3 (21.65%)
  Node T5 (17.44%)
  Node T6 (14.85%)
  
  
  ***************************
  Time-Step Critical Elements
  ***************************
  None
  
  
  ********************************
  Highest Flow Instability Indexes
  ********************************
  Link C13 (2)
  
  
  *************************
  Routing Time Step Summary
  *************************
  Minimum Time Step           :     4.50 sec
  Average Time Step           :     5.00 sec
  Maximum Time Step           :     5.00 sec
  Percent in Steady State     :     0.00
  Average Iterations per Step :     2.19
  Percent Not Converging      :     0.59
  
  
  ***************************
  Subcatchment Runoff Summary
  ***************************
  
  ------------------------------------------------------------------------------------------------------------------------------
                            Total      Total      Total      Total     Imperv       Perv      Total       Total     Peak  Runoff
                           Precip      Runon       Evap      Infil     Runoff     Runoff     Runoff      Runoff   Runoff   Coeff
  Subcatchment                 mm         mm         mm         mm         mm         mm         mm    10^6 ltr      CMS
  ------------------------------------------------------------------------------------------------------------------------------
  SC01                      11.28       0.00       0.00       0.00      11.19       0.00      11.19        3.69     1.11   0.992
  SC02                      11.28       0.00       0.00       0.00      11.18       0.00      11.18        2.54     0.76   0.992
  SC03                      11.28       0.00       0.00       0.00      11.21       0.00      11.21        2.02     0.64   0.994
  SC04                      11.28       0.00       0.00       0.00      11.07       0.00      11.07        0.76     0.20   0.982
  SC05                      11.28       0.00       0.00       0.00      11.18       0.00      11.18        1.74     0.52   0.992
  SC06                      11.28       0.00       0.00       0.00      11.02       0.00      11.02        3.59     0.90   0.977
  SC07                      11.28       0.00       0.00       0.00      11.08       0.00      11.08        0.53     0.14   0.982
  SC08                      11.28       0.00       0.00       0.00      11.16       0.00      11.16        3.12     0.89   0.989
  SC09                      11.28       0.00       0.00       0.00      11.13       0.00      11.13        0.77     0.21   0.987
  SC010                     11.28       0.00       0.00       0.00      11.16       0.00      11.16        1.31     0.38   0.990
  
  
  ******************
  Node Depth Summary
  ******************
  
  ---------------------------------------------------------------------------------
                                 Average  Maximum  Maximum  Time of Max    Reported
                                   Depth    Depth      HGL   Occurrence   Max Depth
  Node                 Type       Meters   Meters   Meters  days hr:min      Meters
  ---------------------------------------------------------------------------------
  J1                   JUNCTION     0.08     0.24    34.24     0  02:56        0.24
  J3                   JUNCTION     0.10     0.14    18.14     0  05:40        0.14
  CSO7                 JUNCTION     0.23     1.20    35.20     0  02:24        1.20
  J5                   JUNCTION     0.07     0.18    32.18     0  03:00        0.18
  CSO9                 JUNCTION     0.29     2.00    42.00     0  02:37        2.00
  J8                   JUNCTION     0.13     0.34    36.34     0  03:01        0.34
  CSO8                 JUNCTION     0.31     2.00    34.00     0  02:35        2.00
  J10                  JUNCTION     0.11     0.32    29.32     0  02:55        0.32
  J13                  JUNCTION     0.07     0.23    29.23     0  02:56        0.23
  J15                  JUNCTION     0.17     0.41    15.41     0  02:58        0.41
  J16                  JUNCTION     0.08     0.26    30.26     0  02:56        0.26
  CSO10                JUNCTION     0.19     1.00    31.00     0  02:34        1.00
  J12                  JUNCTION     0.63     1.00    27.00     0  05:02        1.00
  J4                   JUNCTION     0.19     1.15    34.15     0  02:24        0.78
  J6                   JUNCTION     0.06     0.07    25.07     0  04:50        0.07
  J2                   JUNCTION     0.07     0.08    25.08     0  03:37        0.08
  J19                  JUNCTION     0.14     0.17     8.17     0  02:35        0.17
  J9                   JUNCTION     0.08     0.11    29.11     0  03:00        0.11
  J14                  JUNCTION     0.10     0.15    20.15     0  07:41        0.15
  J17                  JUNCTION     0.05     0.08    20.08     0  04:40        0.08
  J7                   JUNCTION     0.10     0.23    39.23     0  03:08        0.23
  J11                  JUNCTION     0.11     0.30    31.30     0  03:08        0.30
  J18                  JUNCTION     0.06     0.16    29.16     0  03:07        0.16
  Out_to_WWTP          OUTFALL      0.14     0.17     6.17     0  04:15        0.17
  T5                   STORAGE      3.44     5.00    32.00     0  02:49        5.00
  T4                   STORAGE      3.41     5.00    32.00     0  03:09        5.00
  T6                   STORAGE      3.67     5.00    36.00     0  02:37        5.00
  T3                   STORAGE      3.38     5.00    27.00     0  04:22        5.00
  T2                   STORAGE      3.49     5.00    26.00     0  02:59        5.00
  T1                   STORAGE      3.24     5.00    15.00     0  02:34        5.00
  
  
  *******************
  Node Inflow Summary
  *******************
  
  -------------------------------------------------------------------------------------------------
                                  Maximum  Maximum                  Lateral       Total        Flow
                                  Lateral    Total  Time of Max      Inflow      Inflow     Balance
                                   Inflow   Inflow   Occurrence      Volume      Volume       Error
  Node                 Type           CMS      CMS  days hr:min    10^6 ltr    10^6 ltr     Percent
  -------------------------------------------------------------------------------------------------
  J1                   JUNCTION     0.538    0.538     0  02:56        2.31        2.31       0.015
  J3                   JUNCTION     0.000    0.190     0  05:34           0        3.19       1.151
  CSO7                 JUNCTION     0.150    0.150     0  03:00       0.817       0.817       0.058
  J5                   JUNCTION     0.205    0.278     0  03:00       0.892         1.6       0.096
  CSO9                 JUNCTION     0.219    0.219     0  02:58       0.964       0.964       0.052
  J8                   JUNCTION     0.942    1.069     0  03:00        4.53         5.4       0.095
  CSO8                 JUNCTION     0.900    0.900     0  02:57        3.42        3.42       0.017
  J10                  JUNCTION     0.650    1.135     0  02:55         2.4        5.39      -0.032
  J13                  JUNCTION     0.773    0.773     0  02:56        3.01        3.01      -0.138
  J15                  JUNCTION     0.000    1.487     0  02:55           0        9.11       0.895
  J16                  JUNCTION     1.130    1.130     0  02:56        4.25        4.25      -0.015
  CSO10                JUNCTION     0.381    0.381     0  02:57        1.45        1.45       0.026
  J12                  JUNCTION     0.000    1.207     0  02:56           0           7      11.561
  J4                   JUNCTION     0.000    0.072     0  03:00           0       0.713       0.478
  J6                   JUNCTION     0.000    0.028     0  03:09           0       0.486       0.523
  J2                   JUNCTION     0.000    0.039     0  02:49           0       0.845       0.606
  J19                  JUNCTION     0.000    0.271     0  02:34           0        5.57       0.194
  J9                   JUNCTION     0.000    0.075     0  02:37           0        1.19       1.687
  J14                  JUNCTION     0.000    0.123     0  05:31           0        1.87       0.392
  J17                  JUNCTION     0.000    0.033     0  04:30           0        0.45       1.441
  J7                   JUNCTION     0.000    0.127     0  03:08           0       0.874       0.356
  J11                  JUNCTION     0.000    0.486     0  03:07           0           3       0.215
  J18                  JUNCTION     0.000    0.202     0  03:07           0        1.27       0.069
  Out_to_WWTP          OUTFALL      0.000    0.271     0  02:35           0        5.56       0.000
  T5                   STORAGE      0.000    0.538     0  02:56           0        2.31      21.131
  T4                   STORAGE      0.000    0.277     0  03:00           0         1.6      27.871
  T6                   STORAGE      0.000    1.067     0  03:01           0        5.39      17.444
  T3                   STORAGE      0.000    1.195     0  02:58           0        6.28      27.633
  T2                   STORAGE      0.000    0.773     0  02:56           0        3.02      44.026
  T1                   STORAGE      0.000    1.461     0  02:58           0        9.03       6.542
  
  
  **********************
  Node Surcharge Summary
  **********************
  
  Surcharging occurs when water rises above the top of the highest conduit.
  ---------------------------------------------------------------------
                                               Max. Height   Min. Depth
                                   Hours       Above Crown    Below Rim
  Node                 Type      Surcharged         Meters       Meters
  ---------------------------------------------------------------------
  CSO7                 JUNCTION        1.04          0.945        0.000
  CSO9                 JUNCTION        1.06          1.682        0.000
  CSO8                 JUNCTION        0.98          1.547        0.000
  CSO10                JUNCTION        0.69          0.560        0.000
  J4                   JUNCTION        1.00          0.847        0.853
  
  
  *********************
  Node Flooding Summary
  *********************
  
  Flooding refers to all water that overflows a node, whether it ponds or not.
  --------------------------------------------------------------------------
                                                             Total   Maximum
                                 Maximum   Time of Max       Flood    Ponded
                        Hours       Rate    Occurrence      Volume     Depth
  Node                 Flooded       CMS   days hr:min    10^6 ltr    Meters
  --------------------------------------------------------------------------
  CSO7                    0.85     0.077      0  03:00       0.103     0.000
  CSO9                    0.51     0.092      0  02:58       0.090     0.000
  CSO8                    0.54     0.414      0  02:57       0.419     0.000
  CSO10                   0.56     0.178      0  02:57       0.183     0.000
  T5                      1.31     0.499      0  02:56       0.655     0.000
  T4                      2.15     0.171      0  03:09       0.286     0.000
  T6                      3.43     0.997      0  03:01       2.838     0.000
  T3                      0.21     0.230      0  04:30       0.049     0.000
  T2                      2.53     0.741      0  02:59       0.670     0.000
  T1                      1.57     1.191      0  02:58       2.447     0.000
  
  
  **********************
  Storage Volume Summary
  **********************
  
  --------------------------------------------------------------------------------------------------
                         Average     Avg  Evap Exfil       Maximum     Max    Time of Max    Maximum
                          Volume    Pcnt  Pcnt  Pcnt        Volume    Pcnt     Occurrence    Outflow
  Storage Unit           1000 m3    Full  Loss  Loss       1000 m3    Full    days hr:min        CMS
  --------------------------------------------------------------------------------------------------
  T5                       0.344      69     0     0         0.500     100       0  02:49      0.039
  T4                       0.341      68     0     0         0.500     100       0  03:09      0.028
  T6                       0.441      73     0     0         0.600     100       0  02:37      0.075
  T3                       1.759      68     0     0         2.600     100       0  04:22      0.479
  T2                       0.697      70     0     0         1.000     100       0  02:59      0.033
  T1                       0.454      65     0     0         0.700     100       0  02:34      0.271
  
  
  ***********************
  Outfall Loading Summary
  ***********************
  
  -----------------------------------------------------------
                         Flow       Avg       Max       Total
                         Freq      Flow      Flow      Volume
  Outfall Node           Pcnt       CMS       CMS    10^6 ltr
  -----------------------------------------------------------
  Out_to_WWTP           99.01     0.199     0.271       5.559
  -----------------------------------------------------------
  System                99.01     0.199     0.271       5.559
  
  
  ********************
  Link Flow Summary
  ********************
  
  -----------------------------------------------------------------------------
                                 Maximum  Time of Max   Maximum    Max/    Max/
                                  |Flow|   Occurrence   |Veloc|    Full    Full
  Link                 Type          CMS  days hr:min     m/sec    Flow   Depth
  -----------------------------------------------------------------------------
  C1                   CONDUIT     0.039     0  03:37      1.04    0.01    0.11
  C6                   CONDUIT     0.072     0  03:00      1.29    1.15    0.79
  C2                   CONDUIT     0.028     0  04:50      1.00    0.03    0.17
  C9                   CONDUIT     0.127     0  03:08      1.28    0.43    0.57
  C16                  CONDUIT     0.488     0  02:46      1.80    0.05    0.15
  C3                   CONDUIT     0.124     0  05:32      1.84    0.05    0.14
  C19                  CONDUIT     0.033     0  04:40      0.71    0.01    0.23
  C11                  CONDUIT     0.189     0  05:40      1.79    0.01    0.13
  C20                  CONDUIT     1.129     0  02:56      3.35    0.04    0.17
  C22                  CONDUIT     0.202     0  03:07      1.56    0.09    0.36
  C12                  CONDUIT     0.075     0  03:00      0.59    0.01    0.28
  C17                  CONDUIT     1.131     0  02:56      3.22    0.06    0.27
  C10                  CONDUIT     1.067     0  03:01      1.66    0.11    0.61
  C13                  CONDUIT     1.195     0  02:58      1.45    0.07    0.75
  C18                  CONDUIT     0.773     0  02:56      1.72    0.03    0.56
  C23                  CONDUIT     1.461     0  02:58      1.24    0.16    0.64
  C4                   CONDUIT     0.538     0  02:56      1.98    0.13    0.62
  C7                   CONDUIT     0.277     0  03:00      1.43    0.07    0.59
  C14                  CONDUIT     0.271     0  02:35      2.08    0.02    0.09
  C5                   CONDUIT     0.072     0  03:00      1.41    1.24    1.00
  C8                   CONDUIT     0.127     0  03:08      1.75    1.60    0.86
  C15                  CONDUIT     0.486     0  03:07      3.42    1.55    0.83
  C21                  CONDUIT     0.202     0  03:07      1.82    1.16    0.69
  V4                   ORIFICE     0.028     0  03:09                      0.35
  V5                   ORIFICE     0.039     0  02:49                      1.00
  V1                   ORIFICE     0.271     0  02:34                      1.00
  V6                   ORIFICE     0.075     0  02:37                      0.43
  V3                   ORIFICE     0.123     0  05:31                      0.65
  V2                   ORIFICE     0.033     0  04:30                      0.24
  
  
  ***************************
  Flow Classification Summary
  ***************************
  
  -------------------------------------------------------------------------------------
                      Adjusted    ---------- Fraction of Time in Flow Class ---------- 
                       /Actual         Up    Down  Sub   Sup   Up    Down  Norm  Inlet 
  Conduit               Length    Dry  Dry   Dry   Crit  Crit  Crit  Crit  Ltd   Ctrl  
  -------------------------------------------------------------------------------------
  C1                      1.00   0.00  0.00  0.00  0.01  0.99  0.00  0.00  0.93  0.00
  C6                      1.00   0.00  0.00  0.00  0.16  0.84  0.00  0.00  0.00  0.00
  C2                      1.00   0.00  0.00  0.00  0.47  0.53  0.00  0.00  0.97  0.00
  C9                      1.00   0.00  0.00  0.00  1.00  0.00  0.00  0.00  1.00  0.00
  C16                     1.00   0.00  0.00  0.00  0.54  0.46  0.00  0.00  0.39  0.00
  C3                      1.00   0.00  0.00  0.00  0.04  0.95  0.00  0.00  0.50  0.00
  C19                     1.00   0.00  0.00  0.00  1.00  0.00  0.00  0.00  1.00  0.00
  C11                     1.00   0.00  0.00  0.00  0.37  0.63  0.00  0.00  1.00  0.00
  C20                     1.00   0.00  0.00  0.00  0.52  0.48  0.00  0.00  0.98  0.00
  C22                     1.00   0.00  0.00  0.00  0.73  0.27  0.00  0.00  1.00  0.00
  C12                     1.00   0.00  0.00  0.00  1.00  0.00  0.00  0.00  1.00  0.00
  C17                     1.00   0.00  0.00  0.00  0.60  0.40  0.00  0.00  0.94  0.00
  C10                     1.00   0.00  0.00  0.00  0.96  0.04  0.00  0.00  0.97  0.00
  C13                     1.00   0.00  0.00  0.00  0.86  0.14  0.00  0.00  0.29  0.00
  C18                     1.00   0.00  0.00  0.00  0.94  0.06  0.00  0.00  0.97  0.00
  C23                     1.00   0.00  0.00  0.00  0.87  0.13  0.00  0.00  0.94  0.00
  C4                      1.00   0.00  0.00  0.00  0.96  0.04  0.00  0.00  0.98  0.00
  C7                      1.00   0.00  0.00  0.00  0.95  0.05  0.00  0.00  0.97  0.00
  C14                     1.00   0.00  0.00  0.00  0.00  0.99  0.00  0.00  0.17  0.00
  C5                      1.00   0.00  0.00  0.00  0.90  0.10  0.00  0.00  0.84  0.00
  C8                      1.00   0.00  0.00  0.00  0.18  0.82  0.00  0.00  0.00  0.00
  C15                     1.00   0.00  0.00  0.00  0.00  1.00  0.00  0.00  0.00  0.00
  C21                     1.00   0.00  0.00  0.00  0.00  1.00  0.00  0.00  0.00  0.00
  
  
  *************************
  Conduit Surcharge Summary
  *************************
  
  ----------------------------------------------------------------------------
                                                           Hours        Hours 
                         --------- Hours Full --------   Above Full   Capacity
  Conduit                Both Ends  Upstream  Dnstream   Normal Flow   Limited
  ----------------------------------------------------------------------------
  C6                          0.01      1.00      0.01      0.90         0.01
  C10                         0.01      0.01      5.88      0.01         0.01
  C13                         0.01      0.01      5.37      0.01         0.01
  C18                         0.01      0.01      5.48      0.01         0.01
  C23                         0.01      0.01      5.94      0.01         0.01
  C4                          0.01      0.01      6.07      0.01         0.01
  C7                          0.01      0.01      5.80      0.01         0.01
  C5                          1.04      1.04      1.16      1.12         1.01
  C8                          0.01      1.06      0.01      1.09         0.01
  C15                         0.01      0.98      0.01      1.08         0.01
  C21                         0.01      0.69      0.01      0.70         0.01
  

  Analysis begun on:  Fri Sep  3 17:57:27 2021
  Analysis ended on:  Fri Sep  3 17:57:27 2021
  Total elapsed time: < 1 sec