
  EPA STORM WATER MANAGEMENT MODEL - VERSION 5.1 (Build 5.3.0.dev0)
  --------------------------------------------------------------

  
  *********************************************************
  NOTE: The summary statistics displayed in this report are
  based on results found at every computational time step,  
  not just on results from each reporting time step.
  *********************************************************
  
  ****************
  Analysis Options
  ****************
  Flow Units ............... CMS
  Process Models:
    Rainfall/Runoff ........ YES
    RDII ................... NO
    Snowmelt ............... NO
    Groundwater ............ NO
    Flow Routing ........... YES
    Ponding Allowed ........ YES
    Water Quality .......... NO
  Infiltration Method ...... HORTON
  Flow Routing Method ...... DYNWAVE
  Surcharge Method ......... EXTRAN
  Starting Date ............ 08/28/2015 08:00:00
  Ending Date .............. 08/28/2015 15:50:00
  Antecedent Dry Days ...... 0.0
  Report Time Step ......... 00:01:00
  Wet Time Step ............ 00:01:00
  Dry Time Step ............ 00:01:00
  Routing Time Step ........ 5.00 sec
  Variable Time Step ....... YES
  Maximum Trials ........... 8
  Number of Threads ........ 1
  Head Tolerance ........... 0.001500 m
  
  
  **************************        Volume         Depth
  Runoff Quantity Continuity     hectare-m            mm
  **************************     ---------       -------
  Total Precipitation ......         1.772         9.833
  Evaporation Loss .........         0.000         0.000
  Infiltration Loss ........         0.000         0.000
  Surface Runoff ...........         1.748         9.701
  Final Storage ............         0.024         0.132
  Continuity Error (%) .....        -0.007
  
  
  **************************        Volume        Volume
  Flow Routing Continuity        hectare-m      10^6 ltr
  **************************     ---------     ---------
  Dry Weather Inflow .......         0.396         3.955
  Wet Weather Inflow .......         1.748        17.481
  Groundwater Inflow .......         0.000         0.000
  RDII Inflow ..............         0.000         0.000
  External Inflow ..........         0.000         0.000
  External Outflow .........         0.548         5.482
  Flooding Loss ............         0.562         5.624
  Evaporation Loss .........         0.000         0.000
  Exfiltration Loss ........         0.000         0.000
  Initial Stored Volume ....         0.000         0.000
  Final Stored Volume ......         0.784         7.841
  Continuity Error (%) .....        11.614
  
  
  *************************
  Highest Continuity Errors
  *************************
  Node T2 (34.23%)
  Node T4 (23.87%)
  Node T3 (21.91%)
  Node T5 (19.24%)
  Node T6 (16.02%)
  
  
  ***************************
  Time-Step Critical Elements
  ***************************
  None
  
  
  ********************************
  Highest Flow Instability Indexes
  ********************************
  Link C13 (2)
  
  
  *************************
  Routing Time Step Summary
  *************************
  Minimum Time Step           :     4.50 sec
  Average Time Step           :     5.00 sec
  Maximum Time Step           :     5.00 sec
  Percent in Steady State     :     0.00
  Average Iterations per Step :     2.18
  Percent Not Converging      :     0.62
  
  
  ***************************
  Subcatchment Runoff Summary
  ***************************
  
  ------------------------------------------------------------------------------------------------------------------------------
                            Total      Total      Total      Total     Imperv       Perv      Total       Total     Peak  Runoff
                           Precip      Runon       Evap      Infil     Runoff     Runoff     Runoff      Runoff   Runoff   Coeff
  Subcatchment                 mm         mm         mm         mm         mm         mm         mm    10^6 ltr      CMS
  ------------------------------------------------------------------------------------------------------------------------------
  SC01                       9.83       0.00       0.00       0.00       9.75       0.00       9.75        3.22     0.85   0.991
  SC02                       9.83       0.00       0.00       0.00       9.74       0.00       9.74        2.22     0.58   0.991
  SC03                       9.83       0.00       0.00       0.00       9.76       0.00       9.76        1.76     0.49   0.993
  SC04                       9.83       0.00       0.00       0.00       9.64       0.00       9.64        0.66     0.15   0.980
  SC05                       9.83       0.00       0.00       0.00       9.74       0.00       9.74        1.52     0.40   0.991
  SC06                       9.83       0.00       0.00       0.00       9.58       0.00       9.58        3.12     0.68   0.974
  SC07                       9.83       0.00       0.00       0.00       9.64       0.00       9.64        0.46     0.10   0.980
  SC08                       9.83       0.00       0.00       0.00       9.71       0.00       9.71        2.72     0.68   0.988
  SC09                       9.83       0.00       0.00       0.00       9.69       0.00       9.69        0.67     0.16   0.985
  SC010                      9.83       0.00       0.00       0.00       9.72       0.00       9.72        1.14     0.29   0.988
  
  
  ******************
  Node Depth Summary
  ******************
  
  ---------------------------------------------------------------------------------
                                 Average  Maximum  Maximum  Time of Max    Reported
                                   Depth    Depth      HGL   Occurrence   Max Depth
  Node                 Type       Meters   Meters   Meters  days hr:min      Meters
  ---------------------------------------------------------------------------------
  J1                   JUNCTION     0.08     0.21    34.21     0  02:43        0.21
  J3                   JUNCTION     0.10     0.13    18.13     0  04:31        0.13
  CSO7                 JUNCTION     0.21     1.20    35.20     0  02:25        1.20
  J5                   JUNCTION     0.07     0.16    32.16     0  02:47        0.16
  CSO9                 JUNCTION     0.27     2.00    42.00     0  02:32        2.00
  J8                   JUNCTION     0.12     0.30    36.30     0  02:48        0.30
  CSO8                 JUNCTION     0.29     2.00    34.00     0  02:31        2.00
  J10                  JUNCTION     0.11     0.30    29.30     0  02:42        0.30
  J13                  JUNCTION     0.07     0.21    29.21     0  02:43        0.21
  J15                  JUNCTION     0.17     0.36    15.36     0  02:47        0.36
  J16                  JUNCTION     0.07     0.23    30.23     0  02:42        0.23
  CSO10                JUNCTION     0.18     1.00    31.00     0  02:30        1.00
  J12                  JUNCTION     0.49     0.80    26.80     0  07:49        0.80
  J4                   JUNCTION     0.18     1.22    34.22     0  02:25        0.80
  J6                   JUNCTION     0.05     0.07    25.07     0  04:10        0.07
  J2                   JUNCTION     0.07     0.08    25.08     0  03:37        0.08
  J19                  JUNCTION     0.14     0.17     8.17     0  02:37        0.17
  J9                   JUNCTION     0.08     0.11    29.11     0  05:59        0.11
  J14                  JUNCTION     0.10     0.15    20.15     0  04:21        0.15
  J17                  JUNCTION     0.05     0.08    20.08     0  04:27        0.08
  J7                   JUNCTION     0.09     0.23    39.23     0  03:02        0.23
  J11                  JUNCTION     0.11     0.30    31.30     0  03:02        0.30
  J18                  JUNCTION     0.06     0.16    29.16     0  03:02        0.16
  Out_to_WWTP          OUTFALL      0.14     0.17     6.17     0  03:58        0.17
  T5                   STORAGE      3.41     5.00    32.00     0  02:48        5.00
  T4                   STORAGE      3.39     5.00    32.00     0  03:17        5.00
  T6                   STORAGE      3.62     5.00    36.00     0  02:38        5.00
  T3                   STORAGE      3.21     4.80    26.80     0  07:44        4.80
  T2                   STORAGE      3.46     5.00    26.00     0  03:04        5.00
  T1                   STORAGE      3.18     5.00    15.00     0  02:36        5.00
  
  
  *******************
  Node Inflow Summary
  *******************
  
  -------------------------------------------------------------------------------------------------
                                  Maximum  Maximum                  Lateral       Total        Flow
                                  Lateral    Total  Time of Max      Inflow      Inflow     Balance
                                   Inflow   Inflow   Occurrence      Volume      Volume       Error
  Node                 Type           CMS      CMS  days hr:min    10^6 ltr    10^6 ltr     Percent
  -------------------------------------------------------------------------------------------------
  J1                   JUNCTION     0.417    0.417     0  02:43        2.08        2.08       0.019
  J3                   JUNCTION     0.000    0.186     0  04:51           0        2.99       0.972
  CSO7                 JUNCTION     0.115    0.115     0  02:46       0.748       0.748       0.061
  J5                   JUNCTION     0.156    0.228     0  02:46       0.792        1.47       0.107
  CSO9                 JUNCTION     0.168    0.168     0  02:45       0.865       0.865       0.054
  J8                   JUNCTION     0.714    0.842     0  02:47        4.06        4.87       0.112
  CSO8                 JUNCTION     0.690    0.690     0  02:44        3.01        3.01       0.018
  J10                  JUNCTION     0.502    0.989     0  02:41        2.14        4.91       0.016
  J13                  JUNCTION     0.596    0.596     0  02:43        2.68        2.68      -0.145
  J15                  JUNCTION     0.000    1.184     0  02:43           0        8.38       0.756
  J16                  JUNCTION     0.871    0.871     0  02:42        3.77        3.77      -0.014
  CSO10                JUNCTION     0.292    0.292     0  02:43        1.28        1.28       0.030
  J12                  JUNCTION     0.000    1.054     0  02:43           0        6.68      10.148
  J4                   JUNCTION     0.000    0.071     0  02:47           0       0.677       0.492
  J6                   JUNCTION     0.000    0.028     0  03:40           0       0.459       0.881
  J2                   JUNCTION     0.000    0.039     0  02:48           0        0.84       0.608
  J19                  JUNCTION     0.000    0.271     0  02:36           0        5.49       0.188
  J9                   JUNCTION     0.000    0.075     0  02:40           0        1.24       1.543
  J14                  JUNCTION     0.000    0.120     0  05:50           0         1.7       0.251
  J17                  JUNCTION     0.000    0.033     0  04:10           0       0.485       0.845
  J7                   JUNCTION     0.000    0.127     0  03:02           0       0.817       0.381
  J11                  JUNCTION     0.000    0.486     0  03:02           0        2.77       0.228
  J18                  JUNCTION     0.000    0.202     0  03:02           0        1.17       0.071
  Out_to_WWTP          OUTFALL      0.000    0.271     0  02:38           0        5.48       0.000
  T5                   STORAGE      0.000    0.417     0  02:43           0        2.08      23.816
  T4                   STORAGE      0.000    0.228     0  02:47           0        1.46      31.359
  T6                   STORAGE      0.000    0.841     0  02:48           0        4.87      19.080
  T3                   STORAGE      0.000    1.045     0  02:45           0        6.07      28.059
  T2                   STORAGE      0.000    0.596     0  02:43           0        2.69      52.042
  T1                   STORAGE      0.000    1.171     0  02:47           0        8.32       6.230
  
  
  **********************
  Node Surcharge Summary
  **********************
  
  Surcharging occurs when water rises above the top of the highest conduit.
  ---------------------------------------------------------------------
                                               Max. Height   Min. Depth
                                   Hours       Above Crown    Below Rim
  Node                 Type      Surcharged         Meters       Meters
  ---------------------------------------------------------------------
  CSO7                 JUNCTION        0.90          0.945        0.000
  CSO9                 JUNCTION        0.91          1.682        0.000
  CSO8                 JUNCTION        0.86          1.547        0.000
  CSO10                JUNCTION        0.63          0.560        0.000
  J4                   JUNCTION        0.87          0.923        0.777
  
  
  *********************
  Node Flooding Summary
  *********************
  
  Flooding refers to all water that overflows a node, whether it ponds or not.
  --------------------------------------------------------------------------
                                                             Total   Maximum
                                 Maximum   Time of Max       Flood    Ponded
                        Hours       Rate    Occurrence      Volume     Depth
  Node                 Flooded       CMS   days hr:min    10^6 ltr    Meters
  --------------------------------------------------------------------------
  CSO7                    0.72     0.044      0  02:46       0.071     0.000
  CSO9                    0.49     0.041      0  02:44       0.047     0.000
  CSO8                    0.52     0.204      0  02:44       0.238     0.000
  CSO10                   0.53     0.090      0  02:43       0.106     0.000
  T5                      1.14     0.358      0  02:48       0.439     0.000
  T4                      2.14     0.106      0  03:17       0.176     0.000
  T6                      2.74     0.769      0  02:53       2.294     0.000
  T2                      1.63     0.332      0  03:04       0.313     0.000
  T1                      1.25     0.901      0  02:47       1.939     0.000
  
  
  **********************
  Storage Volume Summary
  **********************
  
  --------------------------------------------------------------------------------------------------
                         Average     Avg  Evap Exfil       Maximum     Max    Time of Max    Maximum
                          Volume    Pcnt  Pcnt  Pcnt        Volume    Pcnt     Occurrence    Outflow
  Storage Unit           1000 m3    Full  Loss  Loss       1000 m3    Full    days hr:min        CMS
  --------------------------------------------------------------------------------------------------
  T5                       0.341      68     0     0         0.500     100       0  02:48      0.039
  T4                       0.339      68     0     0         0.500     100       0  03:17      0.028
  T6                       0.435      72     0     0         0.600     100       0  02:38      0.075
  T3                       1.671      64     0     0         2.497      96       0  07:44      0.340
  T2                       0.691      69     0     0         1.000     100       0  03:04      0.033
  T1                       0.445      64     0     0         0.700     100       0  02:36      0.271
  
  
  ***********************
  Outfall Loading Summary
  ***********************
  
  -----------------------------------------------------------
                         Flow       Avg       Max       Total
                         Freq      Flow      Flow      Volume
  Outfall Node           Pcnt       CMS       CMS    10^6 ltr
  -----------------------------------------------------------
  Out_to_WWTP           99.01     0.196     0.271       5.482
  -----------------------------------------------------------
  System                99.01     0.196     0.271       5.482
  
  
  ********************
  Link Flow Summary
  ********************
  
  -----------------------------------------------------------------------------
                                 Maximum  Time of Max   Maximum    Max/    Max/
                                  |Flow|   Occurrence   |Veloc|    Full    Full
  Link                 Type          CMS  days hr:min     m/sec    Flow   Depth
  -----------------------------------------------------------------------------
  C1                   CONDUIT     0.039     0  03:37      1.08    0.01    0.11
  C6                   CONDUIT     0.071     0  02:47      1.29    1.14    0.77
  C2                   CONDUIT     0.028     0  04:10      1.01    0.03    0.17
  C9                   CONDUIT     0.127     0  03:02      1.28    0.43    0.53
  C16                  CONDUIT     0.489     0  02:38      1.79    0.05    0.15
  C3                   CONDUIT     0.120     0  04:22      1.81    0.05    0.14
  C19                  CONDUIT     0.033     0  04:27      0.69    0.01    0.21
  C11                  CONDUIT     0.183     0  04:31      1.68    0.01    0.12
  C20                  CONDUIT     0.870     0  02:42      3.06    0.03    0.15
  C22                  CONDUIT     0.202     0  03:02      1.59    0.09    0.33
  C12                  CONDUIT     0.075     0  05:59      0.58    0.01    0.23
  C17                  CONDUIT     0.986     0  02:42      3.10    0.05    0.21
  C10                  CONDUIT     0.841     0  02:48      1.66    0.09    0.60
  C13                  CONDUIT     1.045     0  02:45      1.38    0.06    0.70
  C18                  CONDUIT     0.596     0  02:43      1.72    0.02    0.55
  C23                  CONDUIT     1.171     0  02:47      1.24    0.13    0.62
  C4                   CONDUIT     0.417     0  02:43      1.98    0.10    0.61
  C7                   CONDUIT     0.228     0  02:47      1.43    0.06    0.58
  C14                  CONDUIT     0.271     0  02:38      2.08    0.02    0.09
  C5                   CONDUIT     0.071     0  02:47      1.39    1.22    1.00
  C8                   CONDUIT     0.127     0  03:02      1.75    1.60    0.86
  C15                  CONDUIT     0.486     0  03:02      3.42    1.55    0.83
  C21                  CONDUIT     0.202     0  03:02      1.83    1.16    0.69
  V4                   ORIFICE     0.028     0  03:40                      0.35
  V5                   ORIFICE     0.039     0  02:48                      1.00
  V1                   ORIFICE     0.271     0  02:36                      1.00
  V6                   ORIFICE     0.075     0  02:40                      0.43
  V3                   ORIFICE     0.120     0  05:50                      0.65
  V2                   ORIFICE     0.033     0  04:10                      0.24
  
  
  ***************************
  Flow Classification Summary
  ***************************
  
  -------------------------------------------------------------------------------------
                      Adjusted    ---------- Fraction of Time in Flow Class ---------- 
                       /Actual         Up    Down  Sub   Sup   Up    Down  Norm  Inlet 
  Conduit               Length    Dry  Dry   Dry   Crit  Crit  Crit  Crit  Ltd   Ctrl  
  -------------------------------------------------------------------------------------
  C1                      1.00   0.00  0.00  0.00  0.00  1.00  0.00  0.00  0.93  0.00
  C6                      1.00   0.00  0.00  0.00  0.14  0.86  0.00  0.00  0.00  0.00
  C2                      1.00   0.00  0.00  0.00  0.48  0.52  0.00  0.00  0.95  0.00
  C9                      1.00   0.00  0.00  0.00  1.00  0.00  0.00  0.00  1.00  0.00
  C16                     1.00   0.00  0.00  0.00  0.56  0.44  0.00  0.00  0.42  0.00
  C3                      1.00   0.00  0.00  0.00  0.05  0.94  0.00  0.00  0.61  0.00
  C19                     1.00   0.00  0.00  0.00  1.00  0.00  0.00  0.00  1.00  0.00
  C11                     1.00   0.00  0.00  0.00  0.36  0.64  0.00  0.00  1.00  0.00
  C20                     1.00   0.00  0.00  0.00  0.53  0.47  0.00  0.00  0.98  0.00
  C22                     1.00   0.00  0.00  0.00  0.73  0.27  0.00  0.00  1.00  0.00
  C12                     1.00   0.00  0.00  0.00  1.00  0.00  0.00  0.00  1.00  0.00
  C17                     1.00   0.00  0.00  0.00  0.59  0.41  0.00  0.00  0.94  0.00
  C10                     1.00   0.00  0.00  0.00  0.96  0.04  0.00  0.00  0.98  0.00
  C13                     1.00   0.00  0.00  0.00  0.85  0.15  0.00  0.00  0.29  0.00
  C18                     1.00   0.00  0.00  0.00  0.94  0.06  0.00  0.00  0.97  0.00
  C23                     1.00   0.00  0.00  0.00  0.83  0.17  0.00  0.00  0.94  0.00
  C4                      1.00   0.00  0.00  0.00  0.96  0.04  0.00  0.00  0.98  0.00
  C7                      1.00   0.00  0.00  0.00  0.94  0.06  0.00  0.00  0.97  0.00
  C14                     1.00   0.00  0.00  0.00  0.00  0.99  0.00  0.00  0.32  0.00
  C5                      1.00   0.00  0.00  0.00  0.89  0.11  0.00  0.00  0.86  0.00
  C8                      1.00   0.00  0.00  0.00  0.16  0.84  0.00  0.00  0.00  0.00
  C15                     1.00   0.00  0.00  0.00  0.00  1.00  0.00  0.00  0.00  0.00
  C21                     1.00   0.00  0.00  0.00  0.00  1.00  0.00  0.00  0.00  0.00
  
  
  *************************
  Conduit Surcharge Summary
  *************************
  
  ----------------------------------------------------------------------------
                                                           Hours        Hours 
                         --------- Hours Full --------   Above Full   Capacity
  Conduit                Both Ends  Upstream  Dnstream   Normal Flow   Limited
  ----------------------------------------------------------------------------
  C6                          0.01      0.87      0.01      0.77         0.01
  C10                         0.01      0.01      5.83      0.01         0.01
  C13                         0.01      0.01      5.32      0.01         0.01
  C18                         0.01      0.01      5.43      0.01         0.01
  C23                         0.01      0.01      5.87      0.01         0.01
  C4                          0.01      0.01      6.01      0.01         0.01
  C7                          0.01      0.01      5.74      0.01         0.01
  C5                          0.90      0.90      1.01      0.97         0.87
  C8                          0.01      0.91      0.01      0.94         0.01
  C15                         0.01      0.86      0.01      0.94         0.01
  C21                         0.01      0.63      0.01      0.64         0.01
  

  Analysis begun on:  Fri Sep  3 17:31:40 2021
  Analysis ended on:  Fri Sep  3 17:31:40 2021
  Total elapsed time: < 1 sec