
  EPA STORM WATER MANAGEMENT MODEL - VERSION 5.1 (Build 5.3.0.dev0)
  --------------------------------------------------------------

  
  *********************************************************
  NOTE: The summary statistics displayed in this report are
  based on results found at every computational time step,  
  not just on results from each reporting time step.
  *********************************************************
  
  ****************
  Analysis Options
  ****************
  Flow Units ............... CMS
  Process Models:
    Rainfall/Runoff ........ YES
    RDII ................... NO
    Snowmelt ............... NO
    Groundwater ............ NO
    Flow Routing ........... YES
    Ponding Allowed ........ YES
    Water Quality .......... NO
  Infiltration Method ...... HORTON
  Flow Routing Method ...... DYNWAVE
  Surcharge Method ......... EXTRAN
  Starting Date ............ 08/28/2015 08:00:00
  Ending Date .............. 08/28/2015 15:50:00
  Antecedent Dry Days ...... 0.0
  Report Time Step ......... 00:01:00
  Wet Time Step ............ 00:01:00
  Dry Time Step ............ 00:01:00
  Routing Time Step ........ 5.00 sec
  Variable Time Step ....... YES
  Maximum Trials ........... 8
  Number of Threads ........ 1
  Head Tolerance ........... 0.001500 m
  
  
  **************************        Volume         Depth
  Runoff Quantity Continuity     hectare-m            mm
  **************************     ---------       -------
  Total Precipitation ......         0.910         5.052
  Evaporation Loss .........         0.000         0.000
  Infiltration Loss ........         0.000         0.000
  Surface Runoff ...........         0.888         4.925
  Final Storage ............         0.023         0.127
  Continuity Error (%) .....        -0.007
  
  
  **************************        Volume        Volume
  Flow Routing Continuity        hectare-m      10^6 ltr
  **************************     ---------     ---------
  Dry Weather Inflow .......         0.396         3.955
  Wet Weather Inflow .......         0.887         8.875
  Groundwater Inflow .......         0.000         0.000
  RDII Inflow ..............         0.000         0.000
  External Inflow ..........         0.000         0.000
  External Outflow .........         0.498         4.980
  Flooding Loss ............         0.051         0.506
  Evaporation Loss .........         0.000         0.000
  Exfiltration Loss ........         0.000         0.000
  Initial Stored Volume ....         0.000         0.000
  Final Stored Volume ......         0.580         5.802
  Continuity Error (%) .....        12.019
  
  
  *************************
  Highest Continuity Errors
  *************************
  Node T2 (37.06%)
  Node T6 (26.13%)
  Node T4 (25.59%)
  Node T3 (23.33%)
  Node T5 (23.22%)
  
  
  ***************************
  Time-Step Critical Elements
  ***************************
  None
  
  
  ********************************
  Highest Flow Instability Indexes
  ********************************
  All links are stable.
  
  
  *************************
  Routing Time Step Summary
  *************************
  Minimum Time Step           :     4.50 sec
  Average Time Step           :     5.00 sec
  Maximum Time Step           :     5.00 sec
  Percent in Steady State     :     0.00
  Average Iterations per Step :     2.00
  Percent Not Converging      :     0.00
  
  
  ***************************
  Subcatchment Runoff Summary
  ***************************
  
  ------------------------------------------------------------------------------------------------------------------------------
                            Total      Total      Total      Total     Imperv       Perv      Total       Total     Peak  Runoff
                           Precip      Runon       Evap      Infil     Runoff     Runoff     Runoff      Runoff   Runoff   Coeff
  Subcatchment                 mm         mm         mm         mm         mm         mm         mm    10^6 ltr      CMS
  ------------------------------------------------------------------------------------------------------------------------------
  SC01                       5.05       0.00       0.00       0.00       4.97       0.00       4.97        1.64     0.32   0.983
  SC02                       5.05       0.00       0.00       0.00       4.96       0.00       4.96        1.13     0.22   0.982
  SC03                       5.05       0.00       0.00       0.00       4.98       0.00       4.98        0.90     0.18   0.986
  SC04                       5.05       0.00       0.00       0.00       4.86       0.00       4.86        0.34     0.06   0.963
  SC05                       5.05       0.00       0.00       0.00       4.96       0.00       4.96        0.77     0.15   0.982
  SC06                       5.05       0.00       0.00       0.00       4.82       0.00       4.82        1.57     0.28   0.953
  SC07                       5.05       0.00       0.00       0.00       4.87       0.00       4.87        0.23     0.04   0.963
  SC08                       5.05       0.00       0.00       0.00       4.94       0.00       4.94        1.38     0.27   0.977
  SC09                       5.05       0.00       0.00       0.00       4.91       0.00       4.91        0.34     0.06   0.973
  SC010                      5.05       0.00       0.00       0.00       4.94       0.00       4.94        0.58     0.11   0.978
  
  
  ******************
  Node Depth Summary
  ******************
  
  ---------------------------------------------------------------------------------
                                 Average  Maximum  Maximum  Time of Max    Reported
                                   Depth    Depth      HGL   Occurrence   Max Depth
  Node                 Type       Meters   Meters   Meters  days hr:min      Meters
  ---------------------------------------------------------------------------------
  J1                   JUNCTION     0.07     0.14    34.14     0  03:01        0.14
  J3                   JUNCTION     0.09     0.12    18.12     0  06:31        0.12
  CSO7                 JUNCTION     0.10     0.19    34.19     0  03:01        0.19
  J5                   JUNCTION     0.06     0.12    32.12     0  03:01        0.12
  CSO9                 JUNCTION     0.10     0.25    40.25     0  03:01        0.25
  J8                   JUNCTION     0.10     0.20    36.20     0  03:01        0.20
  CSO8                 JUNCTION     0.12     0.34    32.34     0  03:01        0.34
  J10                  JUNCTION     0.09     0.21    29.21     0  03:01        0.21
  J13                  JUNCTION     0.06     0.13    29.13     0  03:01        0.13
  J15                  JUNCTION     0.15     0.25    15.25     0  03:02        0.25
  J16                  JUNCTION     0.06     0.15    30.15     0  03:01        0.15
  CSO10                JUNCTION     0.11     0.29    30.29     0  03:01        0.29
  J12                  JUNCTION     0.12     0.24    26.24     0  03:03        0.24
  J4                   JUNCTION     0.12     0.23    33.23     0  03:02        0.23
  J6                   JUNCTION     0.05     0.07    25.07     0  06:09        0.07
  J2                   JUNCTION     0.06     0.07    25.07     0  04:15        0.07
  J19                  JUNCTION     0.13     0.17     8.17     0  03:42        0.17
  J9                   JUNCTION     0.08     0.11    29.11     0  05:32        0.11
  J14                  JUNCTION     0.09     0.14    20.14     0  07:41        0.14
  J17                  JUNCTION     0.05     0.07    20.07     0  06:00        0.07
  J7                   JUNCTION     0.08     0.17    39.17     0  03:02        0.17
  J11                  JUNCTION     0.09     0.22    31.22     0  03:01        0.22
  J18                  JUNCTION     0.05     0.12    29.12     0  03:01        0.12
  Out_to_WWTP          OUTFALL      0.13     0.17     6.17     0  03:42        0.17
  T5                   STORAGE      2.48     3.72    30.72     0  04:13        3.72
  T4                   STORAGE      2.27     3.54    30.54     0  05:57        3.54
  T6                   STORAGE      3.42     5.00    36.00     0  03:15        5.00
  T3                   STORAGE      2.08     3.36    25.36     0  07:37        3.36
  T2                   STORAGE      2.08     3.09    24.09     0  05:46        3.09
  T1                   STORAGE      2.66     4.93    14.93     0  03:41        4.93
  
  
  *******************
  Node Inflow Summary
  *******************
  
  -------------------------------------------------------------------------------------------------
                                  Maximum  Maximum                  Lateral       Total        Flow
                                  Lateral    Total  Time of Max      Inflow      Inflow     Balance
                                   Inflow   Inflow   Occurrence      Volume      Volume       Error
  Node                 Type           CMS      CMS  days hr:min    10^6 ltr    10^6 ltr     Percent
  -------------------------------------------------------------------------------------------------
  J1                   JUNCTION     0.175    0.175     0  03:01        1.34        1.34       0.042
  J3                   JUNCTION     0.000    0.154     0  06:30           0        2.51       1.284
  CSO7                 JUNCTION     0.054    0.054     0  03:01       0.522       0.522       0.088
  J5                   JUNCTION     0.066    0.117     0  03:01       0.463       0.981       0.164
  CSO9                 JUNCTION     0.072    0.072     0  03:01       0.535       0.535       0.082
  J8                   JUNCTION     0.313    0.382     0  03:01        2.51        3.04       0.180
  CSO8                 JUNCTION     0.276    0.276     0  03:01        1.67        1.67       0.032
  J10                  JUNCTION     0.198    0.466     0  03:01        1.28        2.95       0.182
  J13                  JUNCTION     0.241    0.241     0  03:01         1.6         1.6      -0.194
  J15                  JUNCTION     0.000    0.560     0  03:01           0        5.79       1.242
  J16                  JUNCTION     0.347    0.347     0  03:01        2.19        2.19       0.020
  CSO10                JUNCTION     0.117    0.117     0  03:01        0.72        0.72       0.059
  J12                  JUNCTION     0.000    0.520     0  03:01           0        4.11       0.348
  J4                   JUNCTION     0.000    0.053     0  03:01           0       0.521       0.722
  J6                   JUNCTION     0.000    0.024     0  06:00           0       0.391       0.583
  J2                   JUNCTION     0.000    0.034     0  04:13           0        0.72       0.641
  J19                  JUNCTION     0.000    0.269     0  03:41           0        4.99       0.191
  J9                   JUNCTION     0.000    0.075     0  03:30           0        1.18       0.806
  J14                  JUNCTION     0.000    0.101     0  07:40           0        1.41       0.455
  J17                  JUNCTION     0.000    0.026     0  05:50           0       0.405       1.364
  J7                   JUNCTION     0.000    0.071     0  03:01           0       0.535       0.599
  J11                  JUNCTION     0.000    0.275     0  03:01           0        1.67       0.356
  J18                  JUNCTION     0.000    0.117     0  03:01           0       0.719       0.145
  Out_to_WWTP          OUTFALL      0.000    0.269     0  03:42           0        4.98       0.000
  T5                   STORAGE      0.000    0.173     0  03:01           0        1.34      30.239
  T4                   STORAGE      0.000    0.116     0  03:01           0       0.979      34.399
  T6                   STORAGE      0.000    0.376     0  03:01           0        3.03      35.376
  T3                   STORAGE      0.000    0.507     0  03:03           0         4.1      30.430
  T2                   STORAGE      0.000    0.239     0  03:01           0         1.6      58.876
  T1                   STORAGE      0.000    0.551     0  03:02           0        5.72       7.606
  
  
  **********************
  Node Surcharge Summary
  **********************
  
  No nodes were surcharged.
  
  
  *********************
  Node Flooding Summary
  *********************
  
  Flooding refers to all water that overflows a node, whether it ponds or not.
  --------------------------------------------------------------------------
                                                             Total   Maximum
                                 Maximum   Time of Max       Flood    Ponded
                        Hours       Rate    Occurrence      Volume     Depth
  Node                 Flooded       CMS   days hr:min    10^6 ltr    Meters
  --------------------------------------------------------------------------
  T6                      2.05     0.215      0  03:15       0.506     0.000
  
  
  **********************
  Storage Volume Summary
  **********************
  
  --------------------------------------------------------------------------------------------------
                         Average     Avg  Evap Exfil       Maximum     Max    Time of Max    Maximum
                          Volume    Pcnt  Pcnt  Pcnt        Volume    Pcnt     Occurrence    Outflow
  Storage Unit           1000 m3    Full  Loss  Loss       1000 m3    Full    days hr:min        CMS
  --------------------------------------------------------------------------------------------------
  T5                       0.248      50     0     0         0.372      74       0  04:13      0.034
  T4                       0.227      45     0     0         0.354      71       0  05:57      0.024
  T6                       0.410      68     0     0         0.600     100       0  03:15      0.075
  T3                       1.080      42     0     0         1.745      67       0  07:37      0.101
  T2                       0.415      42     0     0         0.618      62       0  05:46      0.026
  T1                       0.372      53     0     0         0.690      99       0  03:41      0.269
  
  
  ***********************
  Outfall Loading Summary
  ***********************
  
  -----------------------------------------------------------
                         Flow       Avg       Max       Total
                         Freq      Flow      Flow      Volume
  Outfall Node           Pcnt       CMS       CMS    10^6 ltr
  -----------------------------------------------------------
  Out_to_WWTP           99.01     0.178     0.269       4.980
  -----------------------------------------------------------
  System                99.01     0.178     0.269       4.980
  
  
  ********************
  Link Flow Summary
  ********************
  
  -----------------------------------------------------------------------------
                                 Maximum  Time of Max   Maximum    Max/    Max/
                                  |Flow|   Occurrence   |Veloc|    Full    Full
  Link                 Type          CMS  days hr:min     m/sec    Flow   Depth
  -----------------------------------------------------------------------------
  C1                   CONDUIT     0.034     0  04:15      1.02    0.01    0.10
  C6                   CONDUIT     0.052     0  03:03      1.25    0.82    0.57
  C2                   CONDUIT     0.024     0  06:09      0.96    0.03    0.16
  C9                   CONDUIT     0.069     0  03:02      1.06    0.24    0.37
  C16                  CONDUIT     0.270     0  03:02      1.48    0.03    0.11
  C3                   CONDUIT     0.101     0  07:42      1.72    0.04    0.13
  C19                  CONDUIT     0.026     0  06:00      0.62    0.01    0.15
  C11                  CONDUIT     0.152     0  06:31      1.62    0.01    0.09
  C20                  CONDUIT     0.344     0  03:01      2.13    0.01    0.10
  C22                  CONDUIT     0.115     0  03:01      1.28    0.05    0.23
  C12                  CONDUIT     0.075     0  05:32      1.14    0.01    0.08
  C17                  CONDUIT     0.459     0  03:01      2.41    0.02    0.11
  C10                  CONDUIT     0.376     0  03:01      1.66    0.04    0.57
  C13                  CONDUIT     0.507     0  03:03      1.45    0.03    0.56
  C18                  CONDUIT     0.239     0  03:01      1.72    0.01    0.53
  C23                  CONDUIT     0.551     0  03:02      1.24    0.06    0.58
  C4                   CONDUIT     0.173     0  03:01      1.98    0.04    0.57
  C7                   CONDUIT     0.116     0  03:01      1.43    0.03    0.56
  C14                  CONDUIT     0.269     0  03:42      2.07    0.01    0.09
  C5                   CONDUIT     0.053     0  03:01      1.22    0.91    0.81
  C8                   CONDUIT     0.071     0  03:01      1.30    0.90    0.65
  C15                  CONDUIT     0.275     0  03:01      2.60    0.87    0.62
  C21                  CONDUIT     0.117     0  03:01      1.68    0.67    0.47
  V4                   ORIFICE     0.024     0  06:00                      0.35
  V5                   ORIFICE     0.034     0  04:13                      1.00
  V1                   ORIFICE     0.269     0  03:41                      1.00
  V6                   ORIFICE     0.075     0  03:30                      0.43
  V3                   ORIFICE     0.101     0  07:40                      0.65
  V2                   ORIFICE     0.026     0  05:50                      0.24
  
  
  ***************************
  Flow Classification Summary
  ***************************
  
  -------------------------------------------------------------------------------------
                      Adjusted    ---------- Fraction of Time in Flow Class ---------- 
                       /Actual         Up    Down  Sub   Sup   Up    Down  Norm  Inlet 
  Conduit               Length    Dry  Dry   Dry   Crit  Crit  Crit  Crit  Ltd   Ctrl  
  -------------------------------------------------------------------------------------
  C1                      1.00   0.00  0.00  0.00  0.00  1.00  0.00  0.00  0.94  0.00
  C6                      1.00   0.00  0.00  0.00  0.01  0.99  0.00  0.00  0.00  0.00
  C2                      1.00   0.00  0.00  0.00  0.46  0.54  0.00  0.00  0.95  0.00
  C9                      1.00   0.00  0.00  0.00  1.00  0.00  0.00  0.00  1.00  0.00
  C16                     1.00   0.00  0.00  0.00  0.59  0.41  0.00  0.00  0.48  0.00
  C3                      1.00   0.00  0.00  0.00  0.05  0.95  0.00  0.00  0.58  0.00
  C19                     1.00   0.00  0.00  0.00  1.00  0.00  0.00  0.00  1.00  0.00
  C11                     1.00   0.00  0.00  0.00  0.33  0.67  0.00  0.00  1.00  0.00
  C20                     1.00   0.00  0.00  0.00  0.55  0.45  0.00  0.00  0.98  0.00
  C22                     1.00   0.00  0.00  0.00  0.76  0.24  0.00  0.00  1.00  0.00
  C12                     1.00   0.00  0.00  0.00  0.64  0.36  0.00  0.00  0.93  0.00
  C17                     1.00   0.00  0.00  0.00  0.25  0.75  0.00  0.00  0.96  0.00
  C10                     1.00   0.00  0.00  0.00  0.96  0.04  0.00  0.00  0.97  0.00
  C13                     1.00   0.00  0.00  0.00  0.87  0.13  0.00  0.00  0.90  0.00
  C18                     1.00   0.00  0.00  0.00  0.94  0.06  0.00  0.00  0.97  0.00
  C23                     1.00   0.00  0.00  0.00  0.88  0.12  0.00  0.00  0.94  0.00
  C4                      1.00   0.00  0.00  0.00  0.96  0.04  0.00  0.00  0.98  0.00
  C7                      1.00   0.00  0.00  0.00  0.94  0.06  0.00  0.00  0.97  0.00
  C14                     1.00   0.00  0.00  0.00  0.00  0.99  0.00  0.00  0.42  0.00
  C5                      1.00   0.00  0.00  0.00  0.89  0.11  0.00  0.00  0.98  0.00
  C8                      1.00   0.00  0.00  0.00  0.02  0.98  0.00  0.00  0.00  0.00
  C15                     1.00   0.00  0.00  0.00  0.00  1.00  0.00  0.00  0.00  0.00
  C21                     1.00   0.00  0.00  0.00  0.00  1.00  0.00  0.00  0.00  0.00
  
  
  *************************
  Conduit Surcharge Summary
  *************************
  
  ----------------------------------------------------------------------------
                                                           Hours        Hours 
                         --------- Hours Full --------   Above Full   Capacity
  Conduit                Both Ends  Upstream  Dnstream   Normal Flow   Limited
  ----------------------------------------------------------------------------
  C10                         0.01      0.01      5.64      0.01         0.01
  C13                         0.01      0.01      4.83      0.01         0.01
  C18                         0.01      0.01      4.96      0.01         0.01
  C23                         0.01      0.01      5.65      0.01         0.01
  C4                          0.01      0.01      5.83      0.01         0.01
  C7                          0.01      0.01      5.52      0.01         0.01
  

  Analysis begun on:  Fri Sep  3 17:31:49 2021
  Analysis ended on:  Fri Sep  3 17:31:49 2021
  Total elapsed time: < 1 sec