
  EPA STORM WATER MANAGEMENT MODEL - VERSION 5.1 (Build 5.3.0.dev0)
  --------------------------------------------------------------

  
  *********************************************************
  NOTE: The summary statistics displayed in this report are
  based on results found at every computational time step,  
  not just on results from each reporting time step.
  *********************************************************
  
  ****************
  Analysis Options
  ****************
  Flow Units ............... CMS
  Process Models:
    Rainfall/Runoff ........ YES
    RDII ................... NO
    Snowmelt ............... NO
    Groundwater ............ NO
    Flow Routing ........... YES
    Ponding Allowed ........ YES
    Water Quality .......... NO
  Infiltration Method ...... HORTON
  Flow Routing Method ...... DYNWAVE
  Surcharge Method ......... EXTRAN
  Starting Date ............ 08/28/2015 08:00:00
  Ending Date .............. 08/28/2015 15:50:00
  Antecedent Dry Days ...... 0.0
  Report Time Step ......... 00:01:00
  Wet Time Step ............ 00:01:00
  Dry Time Step ............ 00:01:00
  Routing Time Step ........ 5.00 sec
  Variable Time Step ....... YES
  Maximum Trials ........... 8
  Number of Threads ........ 1
  Head Tolerance ........... 0.001500 m
  
  
  **************************        Volume         Depth
  Runoff Quantity Continuity     hectare-m            mm
  **************************     ---------       -------
  Total Precipitation ......         0.723         4.015
  Evaporation Loss .........         0.000         0.000
  Infiltration Loss ........         0.000         0.000
  Surface Runoff ...........         0.701         3.889
  Final Storage ............         0.023         0.126
  Continuity Error (%) .....        -0.008
  
  
  **************************        Volume        Volume
  Flow Routing Continuity        hectare-m      10^6 ltr
  **************************     ---------     ---------
  Dry Weather Inflow .......         0.396         3.955
  Wet Weather Inflow .......         0.701         7.008
  Groundwater Inflow .......         0.000         0.000
  RDII Inflow ..............         0.000         0.000
  External Inflow ..........         0.000         0.000
  External Outflow .........         0.439         4.388
  Flooding Loss ............         0.019         0.185
  Evaporation Loss .........         0.000         0.000
  Exfiltration Loss ........         0.000         0.000
  Initial Stored Volume ....         0.000         0.000
  Final Stored Volume ......         0.523         5.226
  Continuity Error (%) .....        10.619
  
  
  *************************
  Highest Continuity Errors
  *************************
  Node T2 (37.49%)
  Node T6 (31.12%)
  Node T4 (23.67%)
  Node T3 (22.58%)
  Node T5 (22.43%)
  
  
  ***************************
  Time-Step Critical Elements
  ***************************
  None
  
  
  ********************************
  Highest Flow Instability Indexes
  ********************************
  All links are stable.
  
  
  *************************
  Routing Time Step Summary
  *************************
  Minimum Time Step           :     4.50 sec
  Average Time Step           :     5.00 sec
  Maximum Time Step           :     5.00 sec
  Percent in Steady State     :     0.00
  Average Iterations per Step :     2.00
  Percent Not Converging      :     0.00
  
  
  ***************************
  Subcatchment Runoff Summary
  ***************************
  
  ------------------------------------------------------------------------------------------------------------------------------
                            Total      Total      Total      Total     Imperv       Perv      Total       Total     Peak  Runoff
                           Precip      Runon       Evap      Infil     Runoff     Runoff     Runoff      Runoff   Runoff   Coeff
  Subcatchment                 mm         mm         mm         mm         mm         mm         mm    10^6 ltr      CMS
  ------------------------------------------------------------------------------------------------------------------------------
  SC01                       4.01       0.00       0.00       0.00       3.93       0.00       3.93        1.30     0.28   0.979
  SC02                       4.01       0.00       0.00       0.00       3.92       0.00       3.92        0.89     0.19   0.978
  SC03                       4.01       0.00       0.00       0.00       3.95       0.00       3.95        0.71     0.16   0.983
  SC04                       4.01       0.00       0.00       0.00       3.83       0.00       3.83        0.26     0.05   0.954
  SC05                       4.01       0.00       0.00       0.00       3.92       0.00       3.92        0.61     0.13   0.977
  SC06                       4.01       0.00       0.00       0.00       3.78       0.00       3.78        1.23     0.23   0.942
  SC07                       4.01       0.00       0.00       0.00       3.83       0.00       3.83        0.18     0.04   0.954
  SC08                       4.01       0.00       0.00       0.00       3.90       0.00       3.90        1.09     0.23   0.972
  SC09                       4.01       0.00       0.00       0.00       3.88       0.00       3.88        0.27     0.05   0.966
  SC010                      4.01       0.00       0.00       0.00       3.90       0.00       3.90        0.46     0.10   0.973
  
  
  ******************
  Node Depth Summary
  ******************
  
  ---------------------------------------------------------------------------------
                                 Average  Maximum  Maximum  Time of Max    Reported
                                   Depth    Depth      HGL   Occurrence   Max Depth
  Node                 Type       Meters   Meters   Meters  days hr:min      Meters
  ---------------------------------------------------------------------------------
  J1                   JUNCTION     0.07     0.13    34.13     0  03:01        0.13
  J3                   JUNCTION     0.09     0.12    18.12     0  06:50        0.12
  CSO7                 JUNCTION     0.09     0.17    34.17     0  03:01        0.17
  J5                   JUNCTION     0.06     0.11    32.11     0  03:02        0.11
  CSO9                 JUNCTION     0.10     0.22    40.22     0  03:01        0.22
  J8                   JUNCTION     0.10     0.19    36.19     0  03:02        0.19
  CSO8                 JUNCTION     0.11     0.31    32.31     0  03:01        0.31
  J10                  JUNCTION     0.08     0.19    29.19     0  03:01        0.19
  J13                  JUNCTION     0.06     0.13    29.13     0  03:01        0.13
  J15                  JUNCTION     0.14     0.24    15.24     0  03:03        0.24
  J16                  JUNCTION     0.06     0.14    30.14     0  03:01        0.14
  CSO10                JUNCTION     0.10     0.26    30.26     0  03:01        0.26
  J12                  JUNCTION     0.11     0.21    26.21     0  03:03        0.21
  J4                   JUNCTION     0.11     0.20    33.20     0  03:03        0.20
  J6                   JUNCTION     0.05     0.06    25.06     0  05:43        0.06
  J2                   JUNCTION     0.06     0.07    25.07     0  04:35        0.07
  J19                  JUNCTION     0.12     0.16     8.16     0  03:33        0.16
  J9                   JUNCTION     0.07     0.11    29.11     0  07:48        0.11
  J14                  JUNCTION     0.09     0.13    20.13     0  07:41        0.13
  J17                  JUNCTION     0.04     0.06    20.06     0  07:11        0.06
  J7                   JUNCTION     0.07     0.15    39.15     0  03:02        0.15
  J11                  JUNCTION     0.09     0.21    31.21     0  03:02        0.21
  J18                  JUNCTION     0.05     0.12    29.12     0  03:02        0.12
  Out_to_WWTP          OUTFALL      0.12     0.16     6.16     0  03:34        0.16
  T5                   STORAGE      2.04     3.06    30.06     0  04:33        3.06
  T4                   STORAGE      1.85     2.90    29.90     0  05:29        2.90
  T6                   STORAGE      3.28     5.00    36.00     0  04:07        5.00
  T3                   STORAGE      1.67     2.68    24.68     0  07:35        2.68
  T2                   STORAGE      1.70     2.61    23.61     0  06:53        2.61
  T1                   STORAGE      2.07     3.82    13.82     0  03:33        3.82
  
  
  *******************
  Node Inflow Summary
  *******************
  
  -------------------------------------------------------------------------------------------------
                                  Maximum  Maximum                  Lateral       Total        Flow
                                  Lateral    Total  Time of Max      Inflow      Inflow     Balance
                                   Inflow   Inflow   Occurrence      Volume      Volume       Error
  Node                 Type           CMS      CMS  days hr:min    10^6 ltr    10^6 ltr     Percent
  -------------------------------------------------------------------------------------------------
  J1                   JUNCTION     0.156    0.156     0  03:01        1.17        1.17       0.057
  J3                   JUNCTION     0.000    0.140     0  06:42           0        2.32       1.347
  CSO7                 JUNCTION     0.047    0.047     0  03:01       0.472       0.472       0.096
  J5                   JUNCTION     0.056    0.099     0  03:01       0.392        0.86       0.195
  CSO9                 JUNCTION     0.062    0.062     0  03:01       0.464       0.464       0.095
  J8                   JUNCTION     0.264    0.323     0  03:01        2.17        2.63       0.210
  CSO8                 JUNCTION     0.239    0.239     0  03:01        1.38        1.38       0.039
  J10                  JUNCTION     0.178    0.406     0  03:01         1.1        2.47       0.225
  J13                  JUNCTION     0.213    0.213     0  03:01        1.36        1.36      -0.201
  J15                  JUNCTION     0.000    0.519     0  03:01           0        5.08       1.306
  J16                  JUNCTION     0.307    0.307     0  03:01        1.85        1.85       0.035
  CSO10                JUNCTION     0.102    0.102     0  03:01       0.598       0.598       0.071
  J12                  JUNCTION     0.000    0.422     0  03:02           0         3.5       0.774
  J4                   JUNCTION     0.000    0.047     0  03:01           0       0.472       0.798
  J6                   JUNCTION     0.000    0.021     0  05:30           0       0.384       0.864
  J2                   JUNCTION     0.000    0.031     0  04:33           0       0.654       0.661
  J19                  JUNCTION     0.000    0.236     0  03:33           0         4.4       0.203
  J9                   JUNCTION     0.000    0.075     0  04:10           0        1.05       1.650
  J14                  JUNCTION     0.000    0.090     0  07:40           0         1.3       0.452
  J17                  JUNCTION     0.000    0.024     0  07:00           0       0.341       0.883
  J7                   JUNCTION     0.000    0.062     0  03:01           0       0.463       0.695
  J11                  JUNCTION     0.000    0.238     0  03:01           0        1.38       0.424
  J18                  JUNCTION     0.000    0.101     0  03:01           0       0.597       0.190
  Out_to_WWTP          OUTFALL      0.000    0.236     0  03:34           0        4.39       0.000
  T5                   STORAGE      0.000    0.154     0  03:01           0        1.17      28.910
  T4                   STORAGE      0.000    0.098     0  03:02           0       0.858      31.015
  T6                   STORAGE      0.000    0.317     0  03:02           0        2.63      45.179
  T3                   STORAGE      0.000    0.413     0  03:03           0        3.47      29.169
  T2                   STORAGE      0.000    0.210     0  03:01           0        1.36      59.987
  T1                   STORAGE      0.000    0.500     0  03:03           0        5.01       7.408
  
  
  **********************
  Node Surcharge Summary
  **********************
  
  No nodes were surcharged.
  
  
  *********************
  Node Flooding Summary
  *********************
  
  Flooding refers to all water that overflows a node, whether it ponds or not.
  --------------------------------------------------------------------------
                                                             Total   Maximum
                                 Maximum   Time of Max       Flood    Ponded
                        Hours       Rate    Occurrence      Volume     Depth
  Node                 Flooded       CMS   days hr:min    10^6 ltr    Meters
  --------------------------------------------------------------------------
  T6                      1.82     0.065      0  04:20       0.185     0.000
  
  
  **********************
  Storage Volume Summary
  **********************
  
  --------------------------------------------------------------------------------------------------
                         Average     Avg  Evap Exfil       Maximum     Max    Time of Max    Maximum
                          Volume    Pcnt  Pcnt  Pcnt        Volume    Pcnt     Occurrence    Outflow
  Storage Unit           1000 m3    Full  Loss  Loss       1000 m3    Full    days hr:min        CMS
  --------------------------------------------------------------------------------------------------
  T5                       0.204      41     0     0         0.306      61       0  04:33      0.031
  T4                       0.185      37     0     0         0.290      58       0  05:29      0.021
  T6                       0.394      66     0     0         0.600     100       0  04:07      0.075
  T3                       0.869      33     0     0         1.393      54       0  07:35      0.090
  T2                       0.339      34     0     0         0.521      52       0  06:53      0.024
  T1                       0.289      41     0     0         0.535      76       0  03:33      0.236
  
  
  ***********************
  Outfall Loading Summary
  ***********************
  
  -----------------------------------------------------------
                         Flow       Avg       Max       Total
                         Freq      Flow      Flow      Volume
  Outfall Node           Pcnt       CMS       CMS    10^6 ltr
  -----------------------------------------------------------
  Out_to_WWTP           99.01     0.157     0.236       4.387
  -----------------------------------------------------------
  System                99.01     0.157     0.236       4.387
  
  
  ********************
  Link Flow Summary
  ********************
  
  -----------------------------------------------------------------------------
                                 Maximum  Time of Max   Maximum    Max/    Max/
                                  |Flow|   Occurrence   |Veloc|    Full    Full
  Link                 Type          CMS  days hr:min     m/sec    Flow   Depth
  -----------------------------------------------------------------------------
  C1                   CONDUIT     0.031     0  04:35      1.01    0.01    0.09
  C6                   CONDUIT     0.045     0  03:03      1.22    0.71    0.52
  C2                   CONDUIT     0.021     0  05:43      0.93    0.02    0.15
  C9                   CONDUIT     0.060     0  03:02      1.02    0.20    0.34
  C16                  CONDUIT     0.232     0  03:02      1.41    0.02    0.10
  C3                   CONDUIT     0.090     0  07:42      1.65    0.03    0.12
  C19                  CONDUIT     0.024     0  07:11      0.62    0.01    0.14
  C11                  CONDUIT     0.139     0  06:50      1.62    0.01    0.09
  C20                  CONDUIT     0.303     0  03:01      2.03    0.01    0.09
  C22                  CONDUIT     0.099     0  03:02      1.20    0.04    0.22
  C12                  CONDUIT     0.075     0  05:59      1.14    0.01    0.07
  C17                  CONDUIT     0.398     0  03:01      2.37    0.02    0.10
  C10                  CONDUIT     0.317     0  03:02      1.66    0.03    0.56
  C13                  CONDUIT     0.413     0  03:03      1.45    0.02    0.54
  C18                  CONDUIT     0.210     0  03:01      1.72    0.01    0.52
  C23                  CONDUIT     0.500     0  03:03      1.24    0.06    0.58
  C4                   CONDUIT     0.154     0  03:01      1.98    0.04    0.57
  C7                   CONDUIT     0.098     0  03:02      1.43    0.02    0.55
  C14                  CONDUIT     0.236     0  03:34      2.00    0.01    0.08
  C5                   CONDUIT     0.047     0  03:01      1.22    0.80    0.73
  C8                   CONDUIT     0.062     0  03:01      1.27    0.78    0.59
  C15                  CONDUIT     0.238     0  03:01      2.52    0.76    0.57
  C21                  CONDUIT     0.101     0  03:01      1.62    0.58    0.43
  V4                   ORIFICE     0.021     0  05:30                      0.35
  V5                   ORIFICE     0.031     0  04:33                      1.00
  V1                   ORIFICE     0.236     0  03:33                      1.00
  V6                   ORIFICE     0.075     0  04:10                      0.43
  V3                   ORIFICE     0.090     0  07:40                      0.65
  V2                   ORIFICE     0.024     0  07:00                      0.24
  
  
  ***************************
  Flow Classification Summary
  ***************************
  
  -------------------------------------------------------------------------------------
                      Adjusted    ---------- Fraction of Time in Flow Class ---------- 
                       /Actual         Up    Down  Sub   Sup   Up    Down  Norm  Inlet 
  Conduit               Length    Dry  Dry   Dry   Crit  Crit  Crit  Crit  Ltd   Ctrl  
  -------------------------------------------------------------------------------------
  C1                      1.00   0.00  0.00  0.00  0.01  0.98  0.00  0.00  0.93  0.00
  C6                      1.00   0.00  0.00  0.00  0.01  0.99  0.00  0.00  0.00  0.00
  C2                      1.00   0.00  0.00  0.00  0.39  0.61  0.00  0.00  0.96  0.00
  C9                      1.00   0.00  0.00  0.00  1.00  0.00  0.00  0.00  1.00  0.00
  C16                     1.00   0.00  0.00  0.00  0.61  0.39  0.00  0.00  0.50  0.00
  C3                      1.00   0.00  0.00  0.00  0.04  0.95  0.00  0.00  0.54  0.00
  C19                     1.00   0.00  0.00  0.00  1.00  0.00  0.00  0.00  1.00  0.00
  C11                     1.00   0.00  0.00  0.00  0.34  0.66  0.00  0.00  1.00  0.00
  C20                     1.00   0.00  0.00  0.00  0.51  0.49  0.00  0.00  0.98  0.00
  C22                     1.00   0.00  0.00  0.00  0.83  0.17  0.00  0.00  1.00  0.00
  C12                     1.00   0.00  0.00  0.00  0.65  0.35  0.00  0.00  0.89  0.00
  C17                     1.00   0.00  0.00  0.00  0.14  0.86  0.00  0.00  0.97  0.00
  C10                     1.00   0.00  0.00  0.00  0.96  0.04  0.00  0.00  0.97  0.00
  C13                     1.00   0.00  0.00  0.00  0.87  0.13  0.00  0.00  0.91  0.00
  C18                     1.00   0.00  0.00  0.00  0.94  0.06  0.00  0.00  0.97  0.00
  C23                     1.00   0.00  0.00  0.00  0.87  0.13  0.00  0.00  0.94  0.00
  C4                      1.00   0.00  0.00  0.00  0.96  0.04  0.00  0.00  0.98  0.00
  C7                      1.00   0.00  0.00  0.00  0.95  0.05  0.00  0.00  0.97  0.00
  C14                     1.00   0.00  0.00  0.00  0.00  0.99  0.00  0.00  0.41  0.00
  C5                      1.00   0.00  0.00  0.00  0.88  0.12  0.00  0.00  0.98  0.00
  C8                      1.00   0.00  0.00  0.00  0.00  1.00  0.00  0.00  0.00  0.00
  C15                     1.00   0.00  0.00  0.00  0.00  1.00  0.00  0.00  0.00  0.00
  C21                     1.00   0.00  0.00  0.00  0.00  1.00  0.00  0.00  0.00  0.00
  
  
  *************************
  Conduit Surcharge Summary
  *************************
  
  ----------------------------------------------------------------------------
                                                           Hours        Hours 
                         --------- Hours Full --------   Above Full   Capacity
  Conduit                Both Ends  Upstream  Dnstream   Normal Flow   Limited
  ----------------------------------------------------------------------------
  C10                         0.01      0.01      5.41      0.01         0.01
  C13                         0.01      0.01      4.47      0.01         0.01
  C18                         0.01      0.01      4.63      0.01         0.01
  C23                         0.01      0.01      5.40      0.01         0.01
  C4                          0.01      0.01      5.63      0.01         0.01
  C7                          0.01      0.01      5.28      0.01         0.01
  

  Analysis begun on:  Fri Sep  3 17:32:08 2021
  Analysis ended on:  Fri Sep  3 17:32:08 2021
  Total elapsed time: < 1 sec