
  EPA STORM WATER MANAGEMENT MODEL - VERSION 5.1 (Build 5.3.0.dev0)
  --------------------------------------------------------------

  
  *********************************************************
  NOTE: The summary statistics displayed in this report are
  based on results found at every computational time step,  
  not just on results from each reporting time step.
  *********************************************************
  
  ****************
  Analysis Options
  ****************
  Flow Units ............... CMS
  Process Models:
    Rainfall/Runoff ........ YES
    RDII ................... NO
    Snowmelt ............... NO
    Groundwater ............ NO
    Flow Routing ........... YES
    Ponding Allowed ........ YES
    Water Quality .......... NO
  Infiltration Method ...... HORTON
  Flow Routing Method ...... DYNWAVE
  Surcharge Method ......... EXTRAN
  Starting Date ............ 08/28/2015 08:00:00
  Ending Date .............. 08/28/2015 15:50:00
  Antecedent Dry Days ...... 0.0
  Report Time Step ......... 00:01:00
  Wet Time Step ............ 00:01:00
  Dry Time Step ............ 00:01:00
  Routing Time Step ........ 5.00 sec
  Variable Time Step ....... YES
  Maximum Trials ........... 8
  Number of Threads ........ 1
  Head Tolerance ........... 0.001500 m
  
  
  **************************        Volume         Depth
  Runoff Quantity Continuity     hectare-m            mm
  **************************     ---------       -------
  Total Precipitation ......         1.780         9.878
  Evaporation Loss .........         0.000         0.000
  Infiltration Loss ........         0.000         0.000
  Surface Runoff ...........         1.757         9.749
  Final Storage ............         0.023         0.130
  Continuity Error (%) .....        -0.006
  
  
  **************************        Volume        Volume
  Flow Routing Continuity        hectare-m      10^6 ltr
  **************************     ---------     ---------
  Dry Weather Inflow .......         0.396         3.955
  Wet Weather Inflow .......         1.757        17.567
  Groundwater Inflow .......         0.000         0.000
  RDII Inflow ..............         0.000         0.000
  External Inflow ..........         0.000         0.000
  External Outflow .........         0.553         5.531
  Flooding Loss ............         0.543         5.428
  Evaporation Loss .........         0.000         0.000
  Exfiltration Loss ........         0.000         0.000
  Initial Stored Volume ....         0.000         0.000
  Final Stored Volume ......         0.804         8.041
  Continuity Error (%) .....        11.721
  
  
  *************************
  Highest Continuity Errors
  *************************
  Node T2 (34.58%)
  Node T4 (23.00%)
  Node T3 (22.82%)
  Node T5 (19.06%)
  Node T6 (15.92%)
  
  
  ***************************
  Time-Step Critical Elements
  ***************************
  None
  
  
  ********************************
  Highest Flow Instability Indexes
  ********************************
  Link C13 (2)
  
  
  *************************
  Routing Time Step Summary
  *************************
  Minimum Time Step           :     4.50 sec
  Average Time Step           :     5.00 sec
  Maximum Time Step           :     5.00 sec
  Percent in Steady State     :     0.00
  Average Iterations per Step :     2.20
  Percent Not Converging      :     0.57
  
  
  ***************************
  Subcatchment Runoff Summary
  ***************************
  
  ------------------------------------------------------------------------------------------------------------------------------
                            Total      Total      Total      Total     Imperv       Perv      Total       Total     Peak  Runoff
                           Precip      Runon       Evap      Infil     Runoff     Runoff     Runoff      Runoff   Runoff   Coeff
  Subcatchment                 mm         mm         mm         mm         mm         mm         mm    10^6 ltr      CMS
  ------------------------------------------------------------------------------------------------------------------------------
  SC01                       9.88       0.00       0.00       0.00       9.79       0.00       9.79        3.23     0.79   0.991
  SC02                       9.88       0.00       0.00       0.00       9.79       0.00       9.79        2.23     0.54   0.991
  SC03                       9.88       0.00       0.00       0.00       9.81       0.00       9.81        1.77     0.45   0.993
  SC04                       9.88       0.00       0.00       0.00       9.69       0.00       9.69        0.67     0.14   0.981
  SC05                       9.88       0.00       0.00       0.00       9.79       0.00       9.79        1.53     0.37   0.991
  SC06                       9.88       0.00       0.00       0.00       9.63       0.00       9.63        3.14     0.61   0.975
  SC07                       9.88       0.00       0.00       0.00       9.69       0.00       9.69        0.46     0.10   0.981
  SC08                       9.88       0.00       0.00       0.00       9.76       0.00       9.76        2.73     0.63   0.988
  SC09                       9.88       0.00       0.00       0.00       9.74       0.00       9.74        0.67     0.15   0.986
  SC010                      9.88       0.00       0.00       0.00       9.77       0.00       9.77        1.15     0.27   0.989
  
  
  ******************
  Node Depth Summary
  ******************
  
  ---------------------------------------------------------------------------------
                                 Average  Maximum  Maximum  Time of Max    Reported
                                   Depth    Depth      HGL   Occurrence   Max Depth
  Node                 Type       Meters   Meters   Meters  days hr:min      Meters
  ---------------------------------------------------------------------------------
  J1                   JUNCTION     0.08     0.21    34.21     0  02:19        0.21
  J3                   JUNCTION     0.10     0.14    18.14     0  03:55        0.14
  CSO7                 JUNCTION     0.23     1.20    35.20     0  02:07        1.20
  J5                   JUNCTION     0.07     0.16    32.16     0  02:23        0.16
  CSO9                 JUNCTION     0.29     2.00    42.00     0  02:11        2.00
  J8                   JUNCTION     0.12     0.29    36.29     0  02:25        0.29
  CSO8                 JUNCTION     0.31     2.00    34.00     0  02:09        2.00
  J10                  JUNCTION     0.11     0.30    29.30     0  02:18        0.30
  J13                  JUNCTION     0.07     0.20    29.20     0  02:19        0.20
  J15                  JUNCTION     0.17     0.36    15.36     0  02:23        0.36
  J16                  JUNCTION     0.07     0.22    30.22     0  02:19        0.22
  CSO10                JUNCTION     0.18     1.00    31.00     0  02:07        1.00
  J12                  JUNCTION     0.57     0.93    26.93     0  07:25        0.93
  J4                   JUNCTION     0.19     1.24    34.24     0  02:07        0.80
  J6                   JUNCTION     0.06     0.07    25.07     0  04:00        0.07
  J2                   JUNCTION     0.07     0.08    25.08     0  03:22        0.08
  J19                  JUNCTION     0.14     0.17     8.17     0  02:23        0.17
  J9                   JUNCTION     0.08     0.11    29.11     0  04:30        0.11
  J14                  JUNCTION     0.10     0.15    20.15     0  06:31        0.15
  J17                  JUNCTION     0.05     0.08    20.08     0  04:40        0.08
  J7                   JUNCTION     0.09     0.23    39.23     0  02:38        0.23
  J11                  JUNCTION     0.11     0.30    31.30     0  02:39        0.30
  J18                  JUNCTION     0.06     0.16    29.16     0  02:39        0.16
  Out_to_WWTP          OUTFALL      0.14     0.17     6.17     0  04:17        0.17
  T5                   STORAGE      3.50     5.00    32.00     0  02:35        5.00
  T4                   STORAGE      3.46     5.00    32.00     0  03:07        5.00
  T6                   STORAGE      3.71     5.00    36.00     0  02:24        5.00
  T3                   STORAGE      3.38     4.93    26.93     0  07:21        4.93
  T2                   STORAGE      3.57     5.00    26.00     0  02:58        5.00
  T1                   STORAGE      3.21     5.00    15.00     0  02:21        5.00
  
  
  *******************
  Node Inflow Summary
  *******************
  
  -------------------------------------------------------------------------------------------------
                                  Maximum  Maximum                  Lateral       Total        Flow
                                  Lateral    Total  Time of Max      Inflow      Inflow     Balance
                                   Inflow   Inflow   Occurrence      Volume      Volume       Error
  Node                 Type           CMS      CMS  days hr:min    10^6 ltr    10^6 ltr     Percent
  -------------------------------------------------------------------------------------------------
  J1                   JUNCTION     0.389    0.389     0  02:19        2.09        2.09       0.017
  J3                   JUNCTION     0.000    0.188     0  03:53           0        2.98       0.909
  CSO7                 JUNCTION     0.106    0.106     0  02:23       0.751       0.751       0.063
  J5                   JUNCTION     0.143    0.214     0  02:23       0.796        1.48       0.103
  CSO9                 JUNCTION     0.156    0.156     0  02:21       0.868       0.868       0.048
  J8                   JUNCTION     0.648    0.775     0  02:25        4.08        4.91       0.102
  CSO8                 JUNCTION     0.639    0.639     0  02:20        3.03        3.03       0.013
  J10                  JUNCTION     0.469    0.957     0  02:17        2.15        5.01       0.008
  J13                  JUNCTION     0.555    0.555     0  02:19        2.69        2.69      -0.166
  J15                  JUNCTION     0.000    1.131     0  02:20           0        8.39       0.803
  J16                  JUNCTION     0.811    0.811     0  02:18        3.79        3.79      -0.008
  CSO10                JUNCTION     0.271    0.271     0  02:20        1.29        1.29       0.017
  J12                  JUNCTION     0.000    0.977     0  02:18           0         6.7      12.269
  J4                   JUNCTION     0.000    0.074     0  02:07           0       0.687       0.491
  J6                   JUNCTION     0.000    0.028     0  03:20           0       0.497       0.506
  J2                   JUNCTION     0.000    0.039     0  02:35           0       0.854       0.594
  J19                  JUNCTION     0.000    0.271     0  02:21           0        5.54       0.187
  J9                   JUNCTION     0.000    0.075     0  03:30           0         1.3       1.538
  J14                  JUNCTION     0.000    0.123     0  06:30           0        1.64       0.263
  J17                  JUNCTION     0.000    0.033     0  04:30           0       0.442       1.483
  J7                   JUNCTION     0.000    0.127     0  02:38           0       0.839       0.372
  J11                  JUNCTION     0.000    0.486     0  02:39           0        2.87       0.219
  J18                  JUNCTION     0.000    0.202     0  02:39           0        1.21       0.072
  Out_to_WWTP          OUTFALL      0.000    0.271     0  02:23           0        5.53       0.000
  T5                   STORAGE      0.000    0.388     0  02:19           0        2.09      23.547
  T4                   STORAGE      0.000    0.214     0  02:23           0        1.48      29.864
  T6                   STORAGE      0.000    0.775     0  02:25           0        4.91      18.939
  T3                   STORAGE      0.000    0.969     0  02:21           0        5.97      29.571
  T2                   STORAGE      0.000    0.555     0  02:19           0         2.7      52.863
  T1                   STORAGE      0.000    1.117     0  02:23           0        8.32       6.314
  
  
  **********************
  Node Surcharge Summary
  **********************
  
  Surcharging occurs when water rises above the top of the highest conduit.
  ---------------------------------------------------------------------
                                               Max. Height   Min. Depth
                                   Hours       Above Crown    Below Rim
  Node                 Type      Surcharged         Meters       Meters
  ---------------------------------------------------------------------
  CSO7                 JUNCTION        1.07          0.945        0.000
  CSO9                 JUNCTION        1.08          1.682        0.000
  CSO8                 JUNCTION        1.06          1.547        0.000
  CSO10                JUNCTION        0.75          0.560        0.000
  J4                   JUNCTION        1.04          0.941        0.759
  
  
  *********************
  Node Flooding Summary
  *********************
  
  Flooding refers to all water that overflows a node, whether it ponds or not.
  --------------------------------------------------------------------------
                                                             Total   Maximum
                                 Maximum   Time of Max       Flood    Ponded
                        Hours       Rate    Occurrence      Volume     Depth
  Node                 Flooded       CMS   days hr:min    10^6 ltr    Meters
  --------------------------------------------------------------------------
  CSO7                    0.89     0.035      0  02:23       0.063     0.000
  CSO9                    0.45     0.028      0  02:21       0.028     0.000
  CSO8                    0.49     0.153      0  02:20       0.160     0.000
  CSO10                   0.51     0.069      0  02:20       0.073     0.000
  T5                      1.26     0.263      0  02:35       0.436     0.000
  T4                      2.05     0.113      0  03:07       0.176     0.000
  T6                      2.76     0.745      0  02:25       2.273     0.000
  T2                      1.73     0.268      0  02:58       0.341     0.000
  T1                      1.74     0.846      0  02:23       1.878     0.000
  
  
  **********************
  Storage Volume Summary
  **********************
  
  --------------------------------------------------------------------------------------------------
                         Average     Avg  Evap Exfil       Maximum     Max    Time of Max    Maximum
                          Volume    Pcnt  Pcnt  Pcnt        Volume    Pcnt     Occurrence    Outflow
  Storage Unit           1000 m3    Full  Loss  Loss       1000 m3    Full    days hr:min        CMS
  --------------------------------------------------------------------------------------------------
  T5                       0.350      70     0     0         0.500     100       0  02:35      0.039
  T4                       0.346      69     0     0         0.500     100       0  03:07      0.028
  T6                       0.446      74     0     0         0.600     100       0  02:24      0.075
  T3                       1.756      68     0     0         2.565      99       0  07:21      0.284
  T2                       0.714      71     0     0         1.000     100       0  02:58      0.033
  T1                       0.450      64     0     0         0.700     100       0  02:21      0.271
  
  
  ***********************
  Outfall Loading Summary
  ***********************
  
  -----------------------------------------------------------
                         Flow       Avg       Max       Total
                         Freq      Flow      Flow      Volume
  Outfall Node           Pcnt       CMS       CMS    10^6 ltr
  -----------------------------------------------------------
  Out_to_WWTP           99.01     0.198     0.271       5.531
  -----------------------------------------------------------
  System                99.01     0.198     0.271       5.531
  
  
  ********************
  Link Flow Summary
  ********************
  
  -----------------------------------------------------------------------------
                                 Maximum  Time of Max   Maximum    Max/    Max/
                                  |Flow|   Occurrence   |Veloc|    Full    Full
  Link                 Type          CMS  days hr:min     m/sec    Flow   Depth
  -----------------------------------------------------------------------------
  C1                   CONDUIT     0.039     0  03:23      1.12    0.01    0.11
  C6                   CONDUIT     0.071     0  02:23      1.29    1.13    0.76
  C2                   CONDUIT     0.028     0  04:00      1.00    0.03    0.17
  C9                   CONDUIT     0.127     0  02:38      1.29    0.43    0.52
  C16                  CONDUIT     0.489     0  02:15      1.78    0.05    0.15
  C3                   CONDUIT     0.123     0  06:32      1.82    0.05    0.14
  C19                  CONDUIT     0.033     0  04:40      0.71    0.01    0.21
  C11                  CONDUIT     0.188     0  03:55      1.79    0.01    0.12
  C20                  CONDUIT     0.810     0  02:19      3.00    0.03    0.14
  C22                  CONDUIT     0.202     0  02:39      1.60    0.09    0.32
  C12                  CONDUIT     0.075     0  04:30      0.59    0.01    0.26
  C17                  CONDUIT     0.953     0  02:18      3.11    0.05    0.25
  C10                  CONDUIT     0.775     0  02:25      1.66    0.08    0.60
  C13                  CONDUIT     0.969     0  02:21      1.45    0.06    0.73
  C18                  CONDUIT     0.555     0  02:19      1.72    0.02    0.55
  C23                  CONDUIT     1.117     0  02:23      1.24    0.12    0.62
  C4                   CONDUIT     0.388     0  02:19      1.98    0.09    0.60
  C7                   CONDUIT     0.214     0  02:23      1.43    0.05    0.58
  C14                  CONDUIT     0.271     0  02:23      2.08    0.02    0.09
  C5                   CONDUIT     0.074     0  02:07      1.44    1.26    1.00
  C8                   CONDUIT     0.127     0  02:38      1.76    1.60    0.86
  C15                  CONDUIT     0.486     0  02:39      3.43    1.55    0.83
  C21                  CONDUIT     0.202     0  02:39      1.83    1.16    0.69
  V4                   ORIFICE     0.028     0  03:20                      0.35
  V5                   ORIFICE     0.039     0  02:35                      1.00
  V1                   ORIFICE     0.271     0  02:21                      1.00
  V6                   ORIFICE     0.075     0  03:30                      0.43
  V3                   ORIFICE     0.123     0  06:30                      0.65
  V2                   ORIFICE     0.033     0  04:30                      0.24
  
  
  ***************************
  Flow Classification Summary
  ***************************
  
  -------------------------------------------------------------------------------------
                      Adjusted    ---------- Fraction of Time in Flow Class ---------- 
                       /Actual         Up    Down  Sub   Sup   Up    Down  Norm  Inlet 
  Conduit               Length    Dry  Dry   Dry   Crit  Crit  Crit  Crit  Ltd   Ctrl  
  -------------------------------------------------------------------------------------
  C1                      1.00   0.00  0.00  0.00  0.01  0.99  0.00  0.00  0.94  0.00
  C6                      1.00   0.00  0.00  0.00  0.16  0.84  0.00  0.00  0.00  0.00
  C2                      1.00   0.00  0.00  0.00  0.38  0.62  0.00  0.00  0.95  0.00
  C9                      1.00   0.00  0.00  0.00  1.00  0.00  0.00  0.00  1.00  0.00
  C16                     1.00   0.00  0.00  0.00  0.57  0.43  0.00  0.00  0.47  0.00
  C3                      1.00   0.00  0.00  0.00  0.05  0.95  0.00  0.00  0.69  0.00
  C19                     1.00   0.00  0.00  0.00  1.00  0.00  0.00  0.00  1.00  0.00
  C11                     1.00   0.00  0.00  0.00  0.36  0.64  0.00  0.00  1.00  0.00
  C20                     1.00   0.00  0.00  0.00  0.55  0.45  0.00  0.00  0.98  0.00
  C22                     1.00   0.00  0.00  0.00  0.73  0.27  0.00  0.00  1.00  0.00
  C12                     1.00   0.00  0.00  0.00  1.00  0.00  0.00  0.00  1.00  0.00
  C17                     1.00   0.00  0.00  0.00  0.61  0.39  0.00  0.00  0.93  0.00
  C10                     1.00   0.00  0.00  0.00  0.96  0.04  0.00  0.00  0.97  0.00
  C13                     1.00   0.00  0.00  0.00  0.88  0.12  0.00  0.00  0.28  0.00
  C18                     1.00   0.00  0.00  0.00  0.94  0.06  0.00  0.00  0.97  0.00
  C23                     1.00   0.00  0.00  0.00  0.86  0.14  0.00  0.00  0.94  0.00
  C4                      1.00   0.00  0.00  0.00  0.96  0.04  0.00  0.00  0.98  0.00
  C7                      1.00   0.00  0.00  0.00  0.94  0.06  0.00  0.00  0.97  0.00
  C14                     1.00   0.00  0.00  0.00  0.00  0.99  0.00  0.00  0.25  0.00
  C5                      1.00   0.00  0.00  0.00  0.90  0.10  0.00  0.00  0.84  0.00
  C8                      1.00   0.00  0.00  0.00  0.17  0.83  0.00  0.00  0.00  0.00
  C15                     1.00   0.00  0.00  0.00  0.00  1.00  0.00  0.00  0.00  0.00
  C21                     1.00   0.00  0.00  0.00  0.01  0.99  0.00  0.00  0.00  0.00
  
  
  *************************
  Conduit Surcharge Summary
  *************************
  
  ----------------------------------------------------------------------------
                                                           Hours        Hours 
                         --------- Hours Full --------   Above Full   Capacity
  Conduit                Both Ends  Upstream  Dnstream   Normal Flow   Limited
  ----------------------------------------------------------------------------
  C6                          0.01      1.04      0.01      0.94         0.01
  C10                         0.01      0.01      5.93      0.01         0.01
  C13                         0.01      0.01      5.52      0.01         0.01
  C18                         0.01      0.01      5.62      0.01         0.01
  C23                         0.01      0.01      5.97      0.01         0.01
  C4                          0.01      0.01      6.09      0.01         0.01
  C7                          0.01      0.01      5.86      0.01         0.01
  C5                          1.06      1.07      1.16      1.11         1.03
  C8                          0.01      1.08      0.01      1.10         0.01
  C15                         0.01      1.06      0.01      1.13         0.01
  C21                         0.01      0.75      0.01      0.71         0.01
  

  Analysis begun on:  Fri Sep  3 17:33:44 2021
  Analysis ended on:  Fri Sep  3 17:33:44 2021
  Total elapsed time: < 1 sec