
  EPA STORM WATER MANAGEMENT MODEL - VERSION 5.1 (Build 5.3.0.dev0)
  --------------------------------------------------------------

  
  *********************************************************
  NOTE: The summary statistics displayed in this report are
  based on results found at every computational time step,  
  not just on results from each reporting time step.
  *********************************************************
  
  ****************
  Analysis Options
  ****************
  Flow Units ............... CMS
  Process Models:
    Rainfall/Runoff ........ YES
    RDII ................... NO
    Snowmelt ............... NO
    Groundwater ............ NO
    Flow Routing ........... YES
    Ponding Allowed ........ YES
    Water Quality .......... NO
  Infiltration Method ...... HORTON
  Flow Routing Method ...... DYNWAVE
  Surcharge Method ......... EXTRAN
  Starting Date ............ 08/28/2015 08:00:00
  Ending Date .............. 08/28/2015 15:50:00
  Antecedent Dry Days ...... 0.0
  Report Time Step ......... 00:01:00
  Wet Time Step ............ 00:01:00
  Dry Time Step ............ 00:01:00
  Routing Time Step ........ 5.00 sec
  Variable Time Step ....... YES
  Maximum Trials ........... 8
  Number of Threads ........ 1
  Head Tolerance ........... 0.001500 m
  
  
  **************************        Volume         Depth
  Runoff Quantity Continuity     hectare-m            mm
  **************************     ---------       -------
  Total Precipitation ......         0.874         4.850
  Evaporation Loss .........         0.000         0.000
  Infiltration Loss ........         0.000         0.000
  Surface Runoff ...........         0.851         4.723
  Final Storage ............         0.023         0.127
  Continuity Error (%) .....        -0.007
  
  
  **************************        Volume        Volume
  Flow Routing Continuity        hectare-m      10^6 ltr
  **************************     ---------     ---------
  Dry Weather Inflow .......         0.396         3.955
  Wet Weather Inflow .......         0.851         8.511
  Groundwater Inflow .......         0.000         0.000
  RDII Inflow ..............         0.000         0.000
  External Inflow ..........         0.000         0.000
  External Outflow .........         0.483         4.827
  Flooding Loss ............         0.045         0.450
  Evaporation Loss .........         0.000         0.000
  Exfiltration Loss ........         0.000         0.000
  Initial Stored Volume ....         0.000         0.000
  Final Stored Volume ......         0.571         5.714
  Continuity Error (%) .....        11.837
  
  
  *************************
  Highest Continuity Errors
  *************************
  Node T2 (37.24%)
  Node T6 (27.03%)
  Node T4 (25.40%)
  Node T3 (23.66%)
  Node T5 (23.05%)
  
  
  ***************************
  Time-Step Critical Elements
  ***************************
  None
  
  
  ********************************
  Highest Flow Instability Indexes
  ********************************
  All links are stable.
  
  
  *************************
  Routing Time Step Summary
  *************************
  Minimum Time Step           :     4.50 sec
  Average Time Step           :     5.00 sec
  Maximum Time Step           :     5.00 sec
  Percent in Steady State     :     0.00
  Average Iterations per Step :     2.00
  Percent Not Converging      :     0.00
  
  
  ***************************
  Subcatchment Runoff Summary
  ***************************
  
  ------------------------------------------------------------------------------------------------------------------------------
                            Total      Total      Total      Total     Imperv       Perv      Total       Total     Peak  Runoff
                           Precip      Runon       Evap      Infil     Runoff     Runoff     Runoff      Runoff   Runoff   Coeff
  Subcatchment                 mm         mm         mm         mm         mm         mm         mm    10^6 ltr      CMS
  ------------------------------------------------------------------------------------------------------------------------------
  SC01                       4.85       0.00       0.00       0.00       4.76       0.00       4.76        1.57     0.31   0.982
  SC02                       4.85       0.00       0.00       0.00       4.76       0.00       4.76        1.08     0.21   0.981
  SC03                       4.85       0.00       0.00       0.00       4.78       0.00       4.78        0.86     0.17   0.986
  SC04                       4.85       0.00       0.00       0.00       4.66       0.00       4.66        0.32     0.06   0.961
  SC05                       4.85       0.00       0.00       0.00       4.76       0.00       4.76        0.74     0.15   0.981
  SC06                       4.85       0.00       0.00       0.00       4.61       0.00       4.61        1.50     0.26   0.951
  SC07                       4.85       0.00       0.00       0.00       4.66       0.00       4.66        0.22     0.04   0.962
  SC08                       4.85       0.00       0.00       0.00       4.74       0.00       4.74        1.33     0.25   0.976
  SC09                       4.85       0.00       0.00       0.00       4.71       0.00       4.71        0.33     0.06   0.971
  SC010                      4.85       0.00       0.00       0.00       4.74       0.00       4.74        0.56     0.11   0.977
  
  
  ******************
  Node Depth Summary
  ******************
  
  ---------------------------------------------------------------------------------
                                 Average  Maximum  Maximum  Time of Max    Reported
                                   Depth    Depth      HGL   Occurrence   Max Depth
  Node                 Type       Meters   Meters   Meters  days hr:min      Meters
  ---------------------------------------------------------------------------------
  J1                   JUNCTION     0.07     0.14    34.14     0  03:01        0.14
  J3                   JUNCTION     0.09     0.12    18.12     0  07:50        0.12
  CSO7                 JUNCTION     0.10     0.19    34.19     0  03:01        0.19
  J5                   JUNCTION     0.06     0.11    32.11     0  03:01        0.11
  CSO9                 JUNCTION     0.10     0.24    40.24     0  03:01        0.24
  J8                   JUNCTION     0.10     0.20    36.20     0  03:01        0.20
  CSO8                 JUNCTION     0.12     0.33    32.33     0  03:01        0.33
  J10                  JUNCTION     0.09     0.20    29.20     0  03:01        0.20
  J13                  JUNCTION     0.06     0.13    29.13     0  03:01        0.13
  J15                  JUNCTION     0.14     0.25    15.25     0  03:02        0.25
  J16                  JUNCTION     0.06     0.14    30.14     0  03:01        0.14
  CSO10                JUNCTION     0.11     0.28    30.28     0  03:01        0.28
  J12                  JUNCTION     0.12     0.23    26.23     0  03:03        0.23
  J4                   JUNCTION     0.12     0.22    33.22     0  03:02        0.22
  J6                   JUNCTION     0.05     0.07    25.07     0  07:08        0.07
  J2                   JUNCTION     0.06     0.07    25.07     0  04:18        0.07
  J19                  JUNCTION     0.13     0.17     8.17     0  03:40        0.17
  J9                   JUNCTION     0.08     0.11    29.11     0  06:18        0.11
  J14                  JUNCTION     0.09     0.14    20.14     0  07:41        0.14
  J17                  JUNCTION     0.05     0.07    20.07     0  06:00        0.07
  J7                   JUNCTION     0.08     0.16    39.16     0  03:02        0.16
  J11                  JUNCTION     0.09     0.22    31.22     0  03:01        0.22
  J18                  JUNCTION     0.05     0.12    29.12     0  03:01        0.12
  Out_to_WWTP          OUTFALL      0.13     0.17     6.17     0  03:40        0.17
  T5                   STORAGE      2.40     3.59    30.59     0  04:16        3.59
  T4                   STORAGE      2.19     3.45    30.45     0  06:52        3.45
  T6                   STORAGE      3.43     5.00    36.00     0  03:15        5.00
  T3                   STORAGE      2.00     3.29    25.29     0  07:37        3.29
  T2                   STORAGE      2.00     2.99    23.99     0  05:47        2.99
  T1                   STORAGE      2.50     4.74    14.74     0  03:40        4.74
  
  
  *******************
  Node Inflow Summary
  *******************
  
  -------------------------------------------------------------------------------------------------
                                  Maximum  Maximum                  Lateral       Total        Flow
                                  Lateral    Total  Time of Max      Inflow      Inflow     Balance
                                   Inflow   Inflow   Occurrence      Volume      Volume       Error
  Node                 Type           CMS      CMS  days hr:min    10^6 ltr    10^6 ltr     Percent
  -------------------------------------------------------------------------------------------------
  J1                   JUNCTION     0.168    0.168     0  03:01         1.3         1.3       0.044
  J3                   JUNCTION     0.000    0.153     0  07:42           0        2.41       1.386
  CSO7                 JUNCTION     0.052    0.052     0  03:01       0.512       0.512       0.089
  J5                   JUNCTION     0.063    0.112     0  03:01       0.449       0.957       0.169
  CSO9                 JUNCTION     0.069    0.069     0  03:01       0.521       0.521       0.084
  J8                   JUNCTION     0.301    0.367     0  03:01        2.44        2.96       0.185
  CSO8                 JUNCTION     0.264    0.264     0  03:01        1.62        1.62       0.033
  J10                  JUNCTION     0.190    0.447     0  03:01        1.25        2.86       0.191
  J13                  JUNCTION     0.232    0.232     0  03:01        1.55        1.55      -0.200
  J15                  JUNCTION     0.000    0.552     0  03:01           0        5.59       1.267
  J16                  JUNCTION     0.333    0.333     0  03:01        2.13        2.13       0.023
  CSO10                JUNCTION     0.113    0.113     0  03:01       0.696       0.696       0.061
  J12                  JUNCTION     0.000    0.467     0  03:01           0        3.98       0.375
  J4                   JUNCTION     0.000    0.052     0  03:01           0       0.512       0.736
  J6                   JUNCTION     0.000    0.023     0  07:00           0       0.386       0.927
  J2                   JUNCTION     0.000    0.033     0  04:16           0       0.708       0.645
  J19                  JUNCTION     0.000    0.263     0  03:40           0        4.84       0.192
  J9                   JUNCTION     0.000    0.075     0  03:40           0        1.14       0.801
  J14                  JUNCTION     0.000    0.100     0  07:40           0        1.33       0.475
  J17                  JUNCTION     0.000    0.026     0  05:50           0       0.389       0.846
  J7                   JUNCTION     0.000    0.068     0  03:01           0       0.521       0.616
  J11                  JUNCTION     0.000    0.264     0  03:01           0        1.62       0.367
  J18                  JUNCTION     0.000    0.112     0  03:01           0       0.695       0.155
  Out_to_WWTP          OUTFALL      0.000    0.263     0  03:40           0        4.83       0.000
  T5                   STORAGE      0.000    0.167     0  03:01           0         1.3      29.959
  T4                   STORAGE      0.000    0.111     0  03:01           0       0.955      34.050
  T6                   STORAGE      0.000    0.361     0  03:01           0        2.96      37.047
  T3                   STORAGE      0.000    0.458     0  03:03           0        3.97      31.001
  T2                   STORAGE      0.000    0.229     0  03:01           0        1.55      59.340
  T1                   STORAGE      0.000    0.542     0  03:02           0        5.52       7.387
  
  
  **********************
  Node Surcharge Summary
  **********************
  
  No nodes were surcharged.
  
  
  *********************
  Node Flooding Summary
  *********************
  
  Flooding refers to all water that overflows a node, whether it ponds or not.
  --------------------------------------------------------------------------
                                                             Total   Maximum
                                 Maximum   Time of Max       Flood    Ponded
                        Hours       Rate    Occurrence      Volume     Depth
  Node                 Flooded       CMS   days hr:min    10^6 ltr    Meters
  --------------------------------------------------------------------------
  T6                      2.10     0.228      0  03:15       0.450     0.000
  
  
  **********************
  Storage Volume Summary
  **********************
  
  --------------------------------------------------------------------------------------------------
                         Average     Avg  Evap Exfil       Maximum     Max    Time of Max    Maximum
                          Volume    Pcnt  Pcnt  Pcnt        Volume    Pcnt     Occurrence    Outflow
  Storage Unit           1000 m3    Full  Loss  Loss       1000 m3    Full    days hr:min        CMS
  --------------------------------------------------------------------------------------------------
  T5                       0.240      48     0     0         0.359      72       0  04:16      0.033
  T4                       0.219      44     0     0         0.345      69       0  06:52      0.023
  T6                       0.412      69     0     0         0.600     100       0  03:15      0.075
  T3                       1.039      40     0     0         1.712      66       0  07:37      0.100
  T2                       0.400      40     0     0         0.599      60       0  05:47      0.026
  T1                       0.350      50     0     0         0.663      95       0  03:40      0.263
  
  
  ***********************
  Outfall Loading Summary
  ***********************
  
  -----------------------------------------------------------
                         Flow       Avg       Max       Total
                         Freq      Flow      Flow      Volume
  Outfall Node           Pcnt       CMS       CMS    10^6 ltr
  -----------------------------------------------------------
  Out_to_WWTP           99.01     0.173     0.263       4.827
  -----------------------------------------------------------
  System                99.01     0.173     0.263       4.827
  
  
  ********************
  Link Flow Summary
  ********************
  
  -----------------------------------------------------------------------------
                                 Maximum  Time of Max   Maximum    Max/    Max/
                                  |Flow|   Occurrence   |Veloc|    Full    Full
  Link                 Type          CMS  days hr:min     m/sec    Flow   Depth
  -----------------------------------------------------------------------------
  C1                   CONDUIT     0.033     0  04:18      1.04    0.01    0.10
  C6                   CONDUIT     0.050     0  03:03      1.24    0.79    0.55
  C2                   CONDUIT     0.023     0  07:08      0.96    0.03    0.16
  C9                   CONDUIT     0.067     0  03:02      1.05    0.23    0.36
  C16                  CONDUIT     0.259     0  03:02      1.46    0.02    0.11
  C3                   CONDUIT     0.100     0  07:42      1.70    0.04    0.13
  C19                  CONDUIT     0.026     0  06:00      0.64    0.01    0.15
  C11                  CONDUIT     0.153     0  07:50      1.67    0.01    0.09
  C20                  CONDUIT     0.330     0  03:01      2.08    0.01    0.10
  C22                  CONDUIT     0.111     0  03:01      1.25    0.05    0.23
  C12                  CONDUIT     0.075     0  05:02      1.13    0.01    0.07
  C17                  CONDUIT     0.441     0  03:01      2.43    0.02    0.11
  C10                  CONDUIT     0.361     0  03:01      1.66    0.04    0.57
  C13                  CONDUIT     0.458     0  03:03      1.41    0.03    0.56
  C18                  CONDUIT     0.229     0  03:01      1.72    0.01    0.53
  C23                  CONDUIT     0.542     0  03:02      1.24    0.06    0.58
  C4                   CONDUIT     0.167     0  03:01      1.98    0.04    0.57
  C7                   CONDUIT     0.111     0  03:01      1.43    0.03    0.56
  C14                  CONDUIT     0.263     0  03:40      2.06    0.01    0.08
  C5                   CONDUIT     0.052     0  03:01      1.22    0.88    0.79
  C8                   CONDUIT     0.068     0  03:01      1.30    0.86    0.63
  C15                  CONDUIT     0.264     0  03:01      2.58    0.84    0.61
  C21                  CONDUIT     0.112     0  03:01      1.66    0.64    0.46
  V4                   ORIFICE     0.023     0  07:00                      0.35
  V5                   ORIFICE     0.033     0  04:16                      1.00
  V1                   ORIFICE     0.263     0  03:40                      1.00
  V6                   ORIFICE     0.075     0  03:40                      0.43
  V3                   ORIFICE     0.100     0  07:40                      0.65
  V2                   ORIFICE     0.026     0  05:50                      0.24
  
  
  ***************************
  Flow Classification Summary
  ***************************
  
  -------------------------------------------------------------------------------------
                      Adjusted    ---------- Fraction of Time in Flow Class ---------- 
                       /Actual         Up    Down  Sub   Sup   Up    Down  Norm  Inlet 
  Conduit               Length    Dry  Dry   Dry   Crit  Crit  Crit  Crit  Ltd   Ctrl  
  -------------------------------------------------------------------------------------
  C1                      1.00   0.00  0.00  0.00  0.02  0.98  0.00  0.00  0.93  0.00
  C6                      1.00   0.00  0.00  0.00  0.01  0.99  0.00  0.00  0.00  0.00
  C2                      1.00   0.00  0.00  0.00  0.53  0.47  0.00  0.00  0.97  0.00
  C9                      1.00   0.00  0.00  0.00  1.00  0.00  0.00  0.00  1.00  0.00
  C16                     1.00   0.00  0.00  0.00  0.59  0.41  0.00  0.00  0.48  0.00
  C3                      1.00   0.00  0.00  0.00  0.04  0.95  0.00  0.00  0.61  0.00
  C19                     1.00   0.00  0.00  0.00  1.00  0.00  0.00  0.00  1.00  0.00
  C11                     1.00   0.00  0.00  0.00  0.36  0.64  0.00  0.00  1.00  0.00
  C20                     1.00   0.00  0.00  0.00  0.54  0.46  0.00  0.00  0.98  0.00
  C22                     1.00   0.00  0.00  0.00  0.79  0.21  0.00  0.00  1.00  0.00
  C12                     1.00   0.00  0.00  0.00  0.60  0.40  0.00  0.00  0.89  0.00
  C17                     1.00   0.00  0.00  0.00  0.28  0.72  0.00  0.00  0.97  0.00
  C10                     1.00   0.00  0.00  0.00  0.96  0.04  0.00  0.00  0.97  0.00
  C13                     1.00   0.00  0.00  0.00  0.87  0.13  0.00  0.00  0.90  0.00
  C18                     1.00   0.00  0.00  0.00  0.94  0.06  0.00  0.00  0.97  0.00
  C23                     1.00   0.00  0.00  0.00  0.87  0.13  0.00  0.00  0.94  0.00
  C4                      1.00   0.00  0.00  0.00  0.96  0.04  0.00  0.00  0.98  0.00
  C7                      1.00   0.00  0.00  0.00  0.95  0.05  0.00  0.00  0.97  0.00
  C14                     1.00   0.00  0.00  0.00  0.00  0.99  0.00  0.00  0.44  0.00
  C5                      1.00   0.00  0.00  0.00  0.89  0.11  0.00  0.00  0.98  0.00
  C8                      1.00   0.00  0.00  0.00  0.00  1.00  0.00  0.00  0.00  0.00
  C15                     1.00   0.00  0.00  0.00  0.00  1.00  0.00  0.00  0.00  0.00
  C21                     1.00   0.00  0.00  0.00  0.00  1.00  0.00  0.00  0.00  0.00
  
  
  *************************
  Conduit Surcharge Summary
  *************************
  
  ----------------------------------------------------------------------------
                                                           Hours        Hours 
                         --------- Hours Full --------   Above Full   Capacity
  Conduit                Both Ends  Upstream  Dnstream   Normal Flow   Limited
  ----------------------------------------------------------------------------
  C10                         0.01      0.01      5.62      0.01         0.01
  C13                         0.01      0.01      4.77      0.01         0.01
  C18                         0.01      0.01      4.91      0.01         0.01
  C23                         0.01      0.01      5.62      0.01         0.01
  C4                          0.01      0.01      5.81      0.01         0.01
  C7                          0.01      0.01      5.48      0.01         0.01
  

  Analysis begun on:  Fri Sep  3 17:29:26 2021
  Analysis ended on:  Fri Sep  3 17:29:26 2021
  Total elapsed time: < 1 sec