
  EPA STORM WATER MANAGEMENT MODEL - VERSION 5.1 (Build 5.3.0.dev0)
  --------------------------------------------------------------

  
  *********************************************************
  NOTE: The summary statistics displayed in this report are
  based on results found at every computational time step,  
  not just on results from each reporting time step.
  *********************************************************
  
  ****************
  Analysis Options
  ****************
  Flow Units ............... CMS
  Process Models:
    Rainfall/Runoff ........ YES
    RDII ................... NO
    Snowmelt ............... NO
    Groundwater ............ NO
    Flow Routing ........... YES
    Ponding Allowed ........ YES
    Water Quality .......... NO
  Infiltration Method ...... HORTON
  Flow Routing Method ...... DYNWAVE
  Surcharge Method ......... EXTRAN
  Starting Date ............ 08/28/2015 08:00:00
  Ending Date .............. 08/28/2015 15:50:00
  Antecedent Dry Days ...... 0.0
  Report Time Step ......... 00:01:00
  Wet Time Step ............ 00:01:00
  Dry Time Step ............ 00:01:00
  Routing Time Step ........ 5.00 sec
  Variable Time Step ....... YES
  Maximum Trials ........... 8
  Number of Threads ........ 1
  Head Tolerance ........... 0.001500 m
  
  
  **************************        Volume         Depth
  Runoff Quantity Continuity     hectare-m            mm
  **************************     ---------       -------
  Total Precipitation ......         2.091        11.604
  Evaporation Loss .........         0.000         0.000
  Infiltration Loss ........         0.000         0.000
  Surface Runoff ...........         2.067        11.471
  Final Storage ............         0.024         0.133
  Continuity Error (%) .....        -0.007
  
  
  **************************        Volume        Volume
  Flow Routing Continuity        hectare-m      10^6 ltr
  **************************     ---------     ---------
  Dry Weather Inflow .......         0.396         3.955
  Wet Weather Inflow .......         2.067        20.671
  Groundwater Inflow .......         0.000         0.000
  RDII Inflow ..............         0.000         0.000
  External Inflow ..........         0.000         0.000
  External Outflow .........         0.558         5.576
  Flooding Loss ............         0.831         8.314
  Evaporation Loss .........         0.000         0.000
  Exfiltration Loss ........         0.000         0.000
  Initial Stored Volume ....         0.000         0.000
  Final Stored Volume ......         0.815         8.154
  Continuity Error (%) .....        10.488
  
  
  *************************
  Highest Continuity Errors
  *************************
  Node T2 (30.01%)
  Node T3 (22.54%)
  Node T4 (20.92%)
  Node T5 (16.96%)
  Node T6 (14.42%)
  
  
  ***************************
  Time-Step Critical Elements
  ***************************
  None
  
  
  ********************************
  Highest Flow Instability Indexes
  ********************************
  Link C13 (1)
  
  
  *************************
  Routing Time Step Summary
  *************************
  Minimum Time Step           :     4.50 sec
  Average Time Step           :     5.00 sec
  Maximum Time Step           :     5.00 sec
  Percent in Steady State     :     0.00
  Average Iterations per Step :     2.18
  Percent Not Converging      :     0.60
  
  
  ***************************
  Subcatchment Runoff Summary
  ***************************
  
  ------------------------------------------------------------------------------------------------------------------------------
                            Total      Total      Total      Total     Imperv       Perv      Total       Total     Peak  Runoff
                           Precip      Runon       Evap      Infil     Runoff     Runoff     Runoff      Runoff   Runoff   Coeff
  Subcatchment                 mm         mm         mm         mm         mm         mm         mm    10^6 ltr      CMS
  ------------------------------------------------------------------------------------------------------------------------------
  SC01                      11.60       0.00       0.00       0.00      11.52       0.00      11.52        3.80     1.02   0.993
  SC02                      11.60       0.00       0.00       0.00      11.51       0.00      11.51        2.62     0.69   0.992
  SC03                      11.60       0.00       0.00       0.00      11.53       0.00      11.53        2.08     0.58   0.994
  SC04                      11.60       0.00       0.00       0.00      11.40       0.00      11.40        0.79     0.18   0.983
  SC05                      11.60       0.00       0.00       0.00      11.51       0.00      11.51        1.80     0.47   0.992
  SC06                      11.60       0.00       0.00       0.00      11.35       0.00      11.35        3.69     0.82   0.978
  SC07                      11.60       0.00       0.00       0.00      11.41       0.00      11.41        0.54     0.13   0.983
  SC08                      11.60       0.00       0.00       0.00      11.49       0.00      11.49        3.22     0.82   0.990
  SC09                      11.60       0.00       0.00       0.00      11.46       0.00      11.46        0.79     0.19   0.988
  SC010                     11.60       0.00       0.00       0.00      11.49       0.00      11.49        1.35     0.34   0.990
  
  
  ******************
  Node Depth Summary
  ******************
  
  ---------------------------------------------------------------------------------
                                 Average  Maximum  Maximum  Time of Max    Reported
                                   Depth    Depth      HGL   Occurrence   Max Depth
  Node                 Type       Meters   Meters   Meters  days hr:min      Meters
  ---------------------------------------------------------------------------------
  J1                   JUNCTION     0.08     0.23    34.23     0  02:42        0.23
  J3                   JUNCTION     0.10     0.14    18.14     0  04:01        0.14
  CSO7                 JUNCTION     0.24     1.20    35.20     0  02:17        1.20
  J5                   JUNCTION     0.07     0.17    32.17     0  02:46        0.17
  CSO9                 JUNCTION     0.31     2.00    42.00     0  02:26        2.00
  J8                   JUNCTION     0.13     0.32    36.32     0  02:47        0.32
  CSO8                 JUNCTION     0.33     2.00    34.00     0  02:24        2.00
  J10                  JUNCTION     0.11     0.31    29.31     0  02:42        0.31
  J13                  JUNCTION     0.07     0.22    29.22     0  02:42        0.22
  J15                  JUNCTION     0.18     0.39    15.39     0  02:46        0.39
  J16                  JUNCTION     0.08     0.25    30.25     0  02:42        0.25
  CSO10                JUNCTION     0.20     1.00    31.00     0  02:24        1.00
  J12                  JUNCTION     0.66     1.01    27.01     0  03:38        1.01
  J4                   JUNCTION     0.19     1.21    34.21     0  02:17        0.76
  J6                   JUNCTION     0.05     0.07    25.07     0  05:00        0.07
  J2                   JUNCTION     0.07     0.08    25.08     0  03:30        0.08
  J19                  JUNCTION     0.14     0.17     8.17     0  02:30        0.17
  J9                   JUNCTION     0.08     0.11    29.11     0  03:10        0.11
  J14                  JUNCTION     0.10     0.15    20.15     0  03:51        0.15
  J17                  JUNCTION     0.05     0.07    20.07     0  07:30        0.07
  J7                   JUNCTION     0.10     0.23    39.23     0  03:04        0.23
  J11                  JUNCTION     0.11     0.30    31.30     0  03:04        0.30
  J18                  JUNCTION     0.06     0.16    29.16     0  03:01        0.16
  Out_to_WWTP          OUTFALL      0.14     0.17     6.17     0  02:29        0.17
  T5                   STORAGE      3.47     5.00    32.00     0  02:41        5.00
  T4                   STORAGE      3.47     5.00    32.00     0  03:01        5.00
  T6                   STORAGE      3.68     5.00    36.00     0  02:32        5.00
  T3                   STORAGE      3.44     5.00    27.00     0  03:33        5.00
  T2                   STORAGE      3.53     5.00    26.00     0  02:53        5.00
  T1                   STORAGE      3.26     5.00    15.00     0  02:29        5.00
  
  
  *******************
  Node Inflow Summary
  *******************
  
  -------------------------------------------------------------------------------------------------
                                  Maximum  Maximum                  Lateral       Total        Flow
                                  Lateral    Total  Time of Max      Inflow      Inflow     Balance
                                   Inflow   Inflow   Occurrence      Volume      Volume       Error
  Node                 Type           CMS      CMS  days hr:min    10^6 ltr    10^6 ltr     Percent
  -------------------------------------------------------------------------------------------------
  J1                   JUNCTION     0.495    0.495     0  02:42        2.36        2.36       0.014
  J3                   JUNCTION     0.000    0.189     0  04:00           0        3.17       1.214
  CSO7                 JUNCTION     0.137    0.137     0  02:45       0.832       0.832       0.054
  J5                   JUNCTION     0.188    0.260     0  02:45       0.914        1.62       0.096
  CSO9                 JUNCTION     0.201    0.201     0  02:44       0.987       0.987       0.049
  J8                   JUNCTION     0.858    0.985     0  02:47        4.64        5.52       0.093
  CSO8                 JUNCTION     0.826    0.826     0  02:43        3.51        3.51       0.016
  J10                  JUNCTION     0.597    1.083     0  02:41        2.46        5.49      -0.039
  J13                  JUNCTION     0.711    0.711     0  02:42        3.09        3.09      -0.139
  J15                  JUNCTION     0.000    1.351     0  02:43           0        9.21       0.877
  J16                  JUNCTION     1.038    1.038     0  02:42        4.35        4.35      -0.014
  CSO10                JUNCTION     0.350    0.350     0  02:43        1.49        1.49       0.024
  J12                  JUNCTION     0.000    1.154     0  02:42           0         6.8      12.472
  J4                   JUNCTION     0.000    0.072     0  02:46           0       0.713       0.469
  J6                   JUNCTION     0.000    0.028     0  04:20           0       0.466       0.890
  J2                   JUNCTION     0.000    0.039     0  02:41           0        0.85       0.599
  J19                  JUNCTION     0.000    0.271     0  02:29           0        5.59       0.193
  J9                   JUNCTION     0.000    0.075     0  02:32           0         1.2       1.540
  J14                  JUNCTION     0.000    0.124     0  03:50           0        1.87       0.390
  J17                  JUNCTION     0.000    0.033     0  03:00           0       0.448       0.869
  J7                   JUNCTION     0.000    0.127     0  03:04           0       0.884       0.352
  J11                  JUNCTION     0.000    0.486     0  03:04           0        3.03       0.211
  J18                  JUNCTION     0.000    0.202     0  03:01           0        1.28       0.068
  Out_to_WWTP          OUTFALL      0.000    0.271     0  02:30           0        5.58       0.000
  T5                   STORAGE      0.000    0.495     0  02:42           0        2.36      20.424
  T4                   STORAGE      0.000    0.260     0  02:46           0        1.62      26.458
  T6                   STORAGE      0.000    0.984     0  02:47           0        5.51      16.852
  T3                   STORAGE      0.000    1.144     0  02:44           0        6.05      29.098
  T2                   STORAGE      0.000    0.710     0  02:42           0        3.09      42.874
  T1                   STORAGE      0.000    1.335     0  02:46           0        9.13       6.365
  
  
  **********************
  Node Surcharge Summary
  **********************
  
  Surcharging occurs when water rises above the top of the highest conduit.
  ---------------------------------------------------------------------
                                               Max. Height   Min. Depth
                                   Hours       Above Crown    Below Rim
  Node                 Type      Surcharged         Meters       Meters
  ---------------------------------------------------------------------
  CSO7                 JUNCTION        1.10          0.945        0.000
  CSO9                 JUNCTION        1.11          1.682        0.000
  CSO8                 JUNCTION        1.05          1.547        0.000
  CSO10                JUNCTION        0.79          0.560        0.000
  J4                   JUNCTION        1.06          0.907        0.793
  
  
  *********************
  Node Flooding Summary
  *********************
  
  Flooding refers to all water that overflows a node, whether it ponds or not.
  --------------------------------------------------------------------------
                                                             Total   Maximum
                                 Maximum   Time of Max       Flood    Ponded
                        Hours       Rate    Occurrence      Volume     Depth
  Node                 Flooded       CMS   days hr:min    10^6 ltr    Meters
  --------------------------------------------------------------------------
  CSO7                    0.91     0.065      0  02:45       0.119     0.000
  CSO9                    0.63     0.074      0  02:44       0.103     0.000
  CSO8                    0.66     0.340      0  02:43       0.475     0.000
  CSO10                   0.67     0.147      0  02:43       0.208     0.000
  T5                      1.29     0.456      0  02:42       0.705     0.000
  T4                      2.61     0.206      0  03:01       0.352     0.000
  T6                      3.40     0.909      0  02:47       2.957     0.000
  T3                      0.44     0.419      0  03:40       0.110     0.000
  T2                      2.32     0.592      0  02:53       0.736     0.000
  T1                      1.38     1.064      0  02:46       2.549     0.000
  
  
  **********************
  Storage Volume Summary
  **********************
  
  --------------------------------------------------------------------------------------------------
                         Average     Avg  Evap Exfil       Maximum     Max    Time of Max    Maximum
                          Volume    Pcnt  Pcnt  Pcnt        Volume    Pcnt     Occurrence    Outflow
  Storage Unit           1000 m3    Full  Loss  Loss       1000 m3    Full    days hr:min        CMS
  --------------------------------------------------------------------------------------------------
  T5                       0.347      69     0     0         0.500     100       0  02:41      0.039
  T4                       0.347      69     0     0         0.500     100       0  03:01      0.028
  T6                       0.441      74     0     0         0.600     100       0  02:32      0.075
  T3                       1.788      69     0     0         2.600     100       0  03:33      0.361
  T2                       0.706      71     0     0         1.000     100       0  02:53      0.033
  T1                       0.456      65     0     0         0.700     100       0  02:29      0.271
  
  
  ***********************
  Outfall Loading Summary
  ***********************
  
  -----------------------------------------------------------
                         Flow       Avg       Max       Total
                         Freq      Flow      Flow      Volume
  Outfall Node           Pcnt       CMS       CMS    10^6 ltr
  -----------------------------------------------------------
  Out_to_WWTP           99.01     0.200     0.271       5.575
  -----------------------------------------------------------
  System                99.01     0.200     0.271       5.575
  
  
  ********************
  Link Flow Summary
  ********************
  
  -----------------------------------------------------------------------------
                                 Maximum  Time of Max   Maximum    Max/    Max/
                                  |Flow|   Occurrence   |Veloc|    Full    Full
  Link                 Type          CMS  days hr:min     m/sec    Flow   Depth
  -----------------------------------------------------------------------------
  C1                   CONDUIT     0.039     0  03:30      1.13    0.01    0.11
  C6                   CONDUIT     0.072     0  02:46      1.29    1.15    0.79
  C2                   CONDUIT     0.028     0  05:00      1.00    0.03    0.17
  C9                   CONDUIT     0.127     0  03:04      1.28    0.43    0.55
  C16                  CONDUIT     0.488     0  02:34      1.79    0.05    0.15
  C3                   CONDUIT     0.124     0  03:52      1.84    0.05    0.14
  C19                  CONDUIT     0.033     0  07:30      0.67    0.01    0.22
  C11                  CONDUIT     0.186     0  04:01      1.78    0.01    0.13
  C20                  CONDUIT     1.037     0  02:42      3.28    0.03    0.16
  C22                  CONDUIT     0.202     0  03:01      1.57    0.09    0.35
  C12                  CONDUIT     0.075     0  03:10      0.56    0.01    0.28
  C17                  CONDUIT     1.079     0  02:42      3.17    0.05    0.28
  C10                  CONDUIT     0.984     0  02:47      1.66    0.10    0.61
  C13                  CONDUIT     1.144     0  02:44      1.45    0.07    0.75
  C18                  CONDUIT     0.710     0  02:42      1.72    0.03    0.56
  C23                  CONDUIT     1.335     0  02:46      1.24    0.15    0.63
  C4                   CONDUIT     0.495     0  02:42      1.98    0.12    0.62
  C7                   CONDUIT     0.260     0  02:46      1.43    0.06    0.59
  C14                  CONDUIT     0.271     0  02:30      2.08    0.02    0.09
  C5                   CONDUIT     0.072     0  02:46      1.40    1.23    1.00
  C8                   CONDUIT     0.127     0  03:04      1.75    1.60    0.86
  C15                  CONDUIT     0.486     0  03:04      3.42    1.55    0.83
  C21                  CONDUIT     0.202     0  03:01      1.82    1.16    0.69
  V4                   ORIFICE     0.028     0  04:20                      0.35
  V5                   ORIFICE     0.039     0  02:41                      1.00
  V1                   ORIFICE     0.271     0  02:29                      1.00
  V6                   ORIFICE     0.075     0  02:32                      0.43
  V3                   ORIFICE     0.124     0  03:50                      0.65
  V2                   ORIFICE     0.033     0  03:00                      0.24
  
  
  ***************************
  Flow Classification Summary
  ***************************
  
  -------------------------------------------------------------------------------------
                      Adjusted    ---------- Fraction of Time in Flow Class ---------- 
                       /Actual         Up    Down  Sub   Sup   Up    Down  Norm  Inlet 
  Conduit               Length    Dry  Dry   Dry   Crit  Crit  Crit  Crit  Ltd   Ctrl  
  -------------------------------------------------------------------------------------
  C1                      1.00   0.00  0.00  0.00  0.02  0.98  0.00  0.00  0.94  0.00
  C6                      1.00   0.00  0.00  0.00  0.16  0.84  0.00  0.00  0.00  0.00
  C2                      1.00   0.00  0.00  0.00  0.59  0.41  0.00  0.00  0.95  0.00
  C9                      1.00   0.00  0.00  0.00  1.00  0.00  0.00  0.00  1.00  0.00
  C16                     1.00   0.00  0.00  0.00  0.55  0.45  0.00  0.00  0.42  0.00
  C3                      1.00   0.00  0.00  0.00  0.05  0.95  0.00  0.00  0.47  0.00
  C19                     1.00   0.00  0.00  0.00  1.00  0.00  0.00  0.00  1.00  0.00
  C11                     1.00   0.00  0.00  0.00  0.36  0.63  0.00  0.00  1.00  0.00
  C20                     1.00   0.00  0.00  0.00  0.52  0.48  0.00  0.00  0.98  0.00
  C22                     1.00   0.00  0.00  0.00  0.76  0.24  0.00  0.00  1.00  0.00
  C12                     1.00   0.00  0.00  0.00  1.00  0.00  0.00  0.00  1.00  0.00
  C17                     1.00   0.00  0.00  0.00  0.61  0.39  0.00  0.00  0.93  0.00
  C10                     1.00   0.00  0.00  0.00  0.96  0.04  0.00  0.00  0.97  0.00
  C13                     1.00   0.00  0.00  0.00  0.84  0.16  0.00  0.00  0.28  0.00
  C18                     1.00   0.00  0.00  0.00  0.94  0.06  0.00  0.00  0.97  0.00
  C23                     1.00   0.00  0.00  0.00  0.86  0.14  0.00  0.00  0.94  0.00
  C4                      1.00   0.00  0.00  0.00  0.96  0.04  0.00  0.00  0.98  0.00
  C7                      1.00   0.00  0.00  0.00  0.94  0.06  0.00  0.00  0.97  0.00
  C14                     1.00   0.00  0.00  0.00  0.00  0.99  0.00  0.00  0.25  0.00
  C5                      1.00   0.00  0.00  0.00  0.90  0.10  0.00  0.00  0.84  0.00
  C8                      1.00   0.00  0.00  0.00  0.18  0.82  0.00  0.00  0.00  0.00
  C15                     1.00   0.00  0.00  0.00  0.00  1.00  0.00  0.00  0.00  0.00
  C21                     1.00   0.00  0.00  0.00  0.00  1.00  0.00  0.00  0.00  0.00
  
  
  *************************
  Conduit Surcharge Summary
  *************************
  
  ----------------------------------------------------------------------------
                                                           Hours        Hours 
                         --------- Hours Full --------   Above Full   Capacity
  Conduit                Both Ends  Upstream  Dnstream   Normal Flow   Limited
  ----------------------------------------------------------------------------
  C6                          0.01      1.06      0.01      0.96         0.01
  C10                         0.01      0.01      5.91      0.01         0.01
  C13                         0.01      0.01      5.43      0.01         0.01
  C18                         0.01      0.01      5.53      0.01         0.01
  C23                         0.01      0.01      5.96      0.01         0.01
  C4                          0.01      0.01      6.09      0.01         0.01
  C7                          0.01      0.01      5.86      0.01         0.01
  C5                          1.10      1.10      1.21      1.17         1.07
  C8                          0.01      1.11      0.01      1.14         0.01
  C15                         0.01      1.05      0.01      1.14         0.01
  C21                         0.01      0.79      0.01      0.80         0.01
  

  Analysis begun on:  Fri Sep  3 17:38:51 2021
  Analysis ended on:  Fri Sep  3 17:38:51 2021
  Total elapsed time: < 1 sec