
  EPA STORM WATER MANAGEMENT MODEL - VERSION 5.1 (Build 5.3.0.dev0)
  --------------------------------------------------------------

  
  *********************************************************
  NOTE: The summary statistics displayed in this report are
  based on results found at every computational time step,  
  not just on results from each reporting time step.
  *********************************************************
  
  ****************
  Analysis Options
  ****************
  Flow Units ............... CMS
  Process Models:
    Rainfall/Runoff ........ YES
    RDII ................... NO
    Snowmelt ............... NO
    Groundwater ............ NO
    Flow Routing ........... YES
    Ponding Allowed ........ YES
    Water Quality .......... NO
  Infiltration Method ...... HORTON
  Flow Routing Method ...... DYNWAVE
  Surcharge Method ......... EXTRAN
  Starting Date ............ 08/28/2015 08:00:00
  Ending Date .............. 08/28/2015 15:50:00
  Antecedent Dry Days ...... 0.0
  Report Time Step ......... 00:01:00
  Wet Time Step ............ 00:01:00
  Dry Time Step ............ 00:01:00
  Routing Time Step ........ 5.00 sec
  Variable Time Step ....... YES
  Maximum Trials ........... 8
  Number of Threads ........ 1
  Head Tolerance ........... 0.001500 m
  
  
  **************************        Volume         Depth
  Runoff Quantity Continuity     hectare-m            mm
  **************************     ---------       -------
  Total Precipitation ......         0.840         4.663
  Evaporation Loss .........         0.000         0.000
  Infiltration Loss ........         0.000         0.000
  Surface Runoff ...........         0.817         4.537
  Final Storage ............         0.023         0.127
  Continuity Error (%) .....        -0.007
  
  
  **************************        Volume        Volume
  Flow Routing Continuity        hectare-m      10^6 ltr
  **************************     ---------     ---------
  Dry Weather Inflow .......         0.396         3.955
  Wet Weather Inflow .......         0.817         8.175
  Groundwater Inflow .......         0.000         0.000
  RDII Inflow ..............         0.000         0.000
  External Inflow ..........         0.000         0.000
  External Outflow .........         0.476         4.758
  Flooding Loss ............         0.028         0.276
  Evaporation Loss .........         0.000         0.000
  Exfiltration Loss ........         0.000         0.000
  Initial Stored Volume ....         0.000         0.000
  Final Stored Volume ......         0.567         5.666
  Continuity Error (%) .....        11.795
  
  
  *************************
  Highest Continuity Errors
  *************************
  Node T2 (37.39%)
  Node T6 (26.72%)
  Node T4 (24.77%)
  Node T3 (23.27%)
  Node T5 (22.90%)
  
  
  ***************************
  Time-Step Critical Elements
  ***************************
  None
  
  
  ********************************
  Highest Flow Instability Indexes
  ********************************
  All links are stable.
  
  
  *************************
  Routing Time Step Summary
  *************************
  Minimum Time Step           :     4.50 sec
  Average Time Step           :     5.00 sec
  Maximum Time Step           :     5.00 sec
  Percent in Steady State     :     0.00
  Average Iterations per Step :     2.00
  Percent Not Converging      :     0.00
  
  
  ***************************
  Subcatchment Runoff Summary
  ***************************
  
  ------------------------------------------------------------------------------------------------------------------------------
                            Total      Total      Total      Total     Imperv       Perv      Total       Total     Peak  Runoff
                           Precip      Runon       Evap      Infil     Runoff     Runoff     Runoff      Runoff   Runoff   Coeff
  Subcatchment                 mm         mm         mm         mm         mm         mm         mm    10^6 ltr      CMS
  ------------------------------------------------------------------------------------------------------------------------------
  SC01                       4.66       0.00       0.00       0.00       4.58       0.00       4.58        1.51     0.30   0.982
  SC02                       4.66       0.00       0.00       0.00       4.57       0.00       4.57        1.04     0.20   0.981
  SC03                       4.66       0.00       0.00       0.00       4.59       0.00       4.59        0.83     0.17   0.985
  SC04                       4.66       0.00       0.00       0.00       4.48       0.00       4.48        0.31     0.06   0.960
  SC05                       4.66       0.00       0.00       0.00       4.57       0.00       4.57        0.71     0.14   0.981
  SC06                       4.66       0.00       0.00       0.00       4.43       0.00       4.43        1.44     0.25   0.950
  SC07                       4.66       0.00       0.00       0.00       4.48       0.00       4.48        0.21     0.04   0.960
  SC08                       4.66       0.00       0.00       0.00       4.55       0.00       4.55        1.27     0.24   0.975
  SC09                       4.66       0.00       0.00       0.00       4.52       0.00       4.52        0.31     0.06   0.970
  SC010                      4.66       0.00       0.00       0.00       4.55       0.00       4.55        0.53     0.10   0.976
  
  
  ******************
  Node Depth Summary
  ******************
  
  ---------------------------------------------------------------------------------
                                 Average  Maximum  Maximum  Time of Max    Reported
                                   Depth    Depth      HGL   Occurrence   Max Depth
  Node                 Type       Meters   Meters   Meters  days hr:min      Meters
  ---------------------------------------------------------------------------------
  J1                   JUNCTION     0.07     0.13    34.13     0  03:01        0.13
  J3                   JUNCTION     0.09     0.12    18.12     0  06:10        0.12
  CSO7                 JUNCTION     0.09     0.18    34.18     0  03:01        0.18
  J5                   JUNCTION     0.06     0.11    32.11     0  03:01        0.11
  CSO9                 JUNCTION     0.10     0.23    40.23     0  03:01        0.23
  J8                   JUNCTION     0.10     0.19    36.19     0  03:01        0.19
  CSO8                 JUNCTION     0.12     0.32    32.32     0  03:01        0.32
  J10                  JUNCTION     0.09     0.20    29.20     0  03:01        0.20
  J13                  JUNCTION     0.06     0.13    29.13     0  03:01        0.13
  J15                  JUNCTION     0.14     0.24    15.24     0  03:02        0.24
  J16                  JUNCTION     0.06     0.14    30.14     0  03:01        0.14
  CSO10                JUNCTION     0.11     0.27    30.27     0  03:01        0.27
  J12                  JUNCTION     0.12     0.23    26.23     0  03:03        0.23
  J4                   JUNCTION     0.12     0.21    33.21     0  03:03        0.21
  J6                   JUNCTION     0.05     0.07    25.07     0  06:09        0.07
  J2                   JUNCTION     0.06     0.07    25.07     0  04:21        0.07
  J19                  JUNCTION     0.13     0.17     8.17     0  03:33        0.17
  J9                   JUNCTION     0.08     0.11    29.11     0  03:50        0.11
  J14                  JUNCTION     0.09     0.14    20.14     0  06:51        0.14
  J17                  JUNCTION     0.05     0.07    20.07     0  06:30        0.07
  J7                   JUNCTION     0.08     0.16    39.16     0  03:02        0.16
  J11                  JUNCTION     0.09     0.22    31.22     0  03:01        0.22
  J18                  JUNCTION     0.05     0.12    29.12     0  03:01        0.12
  Out_to_WWTP          OUTFALL      0.13     0.17     6.17     0  03:33        0.17
  T5                   STORAGE      2.32     3.47    30.47     0  04:19        3.47
  T4                   STORAGE      2.12     3.30    30.30     0  05:57        3.30
  T6                   STORAGE      3.35     5.00    36.00     0  03:28        5.00
  T3                   STORAGE      2.01     3.29    25.29     0  07:37        3.29
  T2                   STORAGE      1.94     2.91    23.91     0  06:13        2.91
  T1                   STORAGE      2.42     4.46    14.46     0  03:32        4.46
  
  
  *******************
  Node Inflow Summary
  *******************
  
  -------------------------------------------------------------------------------------------------
                                  Maximum  Maximum                  Lateral       Total        Flow
                                  Lateral    Total  Time of Max      Inflow      Inflow     Balance
                                   Inflow   Inflow   Occurrence      Volume      Volume       Error
  Node                 Type           CMS      CMS  days hr:min    10^6 ltr    10^6 ltr     Percent
  -------------------------------------------------------------------------------------------------
  J1                   JUNCTION     0.163    0.163     0  03:01        1.28        1.28       0.046
  J3                   JUNCTION     0.000    0.152     0  07:42           0        2.47       1.345
  CSO7                 JUNCTION     0.050    0.050     0  03:01       0.503       0.503       0.090
  J5                   JUNCTION     0.061    0.108     0  03:01       0.436       0.935       0.176
  CSO9                 JUNCTION     0.066    0.066     0  03:01       0.508       0.508       0.086
  J8                   JUNCTION     0.289    0.353     0  03:01        2.38        2.89       0.193
  CSO8                 JUNCTION     0.254    0.254     0  03:01        1.57        1.57       0.034
  J10                  JUNCTION     0.183    0.430     0  03:01        1.21        2.77       0.195
  J13                  JUNCTION     0.223    0.223     0  03:01        1.51        1.51      -0.200
  J15                  JUNCTION     0.000    0.515     0  03:01           0        5.55       1.263
  J16                  JUNCTION     0.321    0.321     0  03:01        2.06        2.06       0.024
  CSO10                JUNCTION     0.108    0.108     0  03:01       0.674       0.674       0.063
  J12                  JUNCTION     0.000    0.480     0  03:01           0        4.05       0.356
  J4                   JUNCTION     0.000    0.050     0  03:01           0       0.503       0.749
  J6                   JUNCTION     0.000    0.023     0  06:00           0       0.392       0.914
  J2                   JUNCTION     0.000    0.033     0  04:19           0       0.696       0.645
  J19                  JUNCTION     0.000    0.256     0  03:32           0        4.77       0.198
  J9                   JUNCTION     0.000    0.075     0  03:30           0        1.29       0.730
  J14                  JUNCTION     0.000    0.100     0  07:40           0         1.4       0.451
  J17                  JUNCTION     0.000    0.025     0  06:20           0       0.375       0.837
  J7                   JUNCTION     0.000    0.066     0  03:01           0       0.508       0.632
  J11                  JUNCTION     0.000    0.253     0  03:01           0        1.57       0.378
  J18                  JUNCTION     0.000    0.108     0  03:01           0       0.673       0.158
  Out_to_WWTP          OUTFALL      0.000    0.256     0  03:33           0        4.76       0.000
  T5                   STORAGE      0.000    0.161     0  03:01           0        1.27      29.698
  T4                   STORAGE      0.000    0.107     0  03:01           0       0.934      32.929
  T6                   STORAGE      0.000    0.347     0  03:01           0        2.88      36.471
  T3                   STORAGE      0.000    0.468     0  03:03           0        4.04      30.321
  T2                   STORAGE      0.000    0.221     0  03:01           0        1.51      59.714
  T1                   STORAGE      0.000    0.502     0  03:02           0        5.48       7.821
  
  
  **********************
  Node Surcharge Summary
  **********************
  
  No nodes were surcharged.
  
  
  *********************
  Node Flooding Summary
  *********************
  
  Flooding refers to all water that overflows a node, whether it ponds or not.
  --------------------------------------------------------------------------
                                                             Total   Maximum
                                 Maximum   Time of Max       Flood    Ponded
                        Hours       Rate    Occurrence      Volume     Depth
  Node                 Flooded       CMS   days hr:min    10^6 ltr    Meters
  --------------------------------------------------------------------------
  T6                      1.80     0.117      0  03:28       0.276     0.000
  
  
  **********************
  Storage Volume Summary
  **********************
  
  --------------------------------------------------------------------------------------------------
                         Average     Avg  Evap Exfil       Maximum     Max    Time of Max    Maximum
                          Volume    Pcnt  Pcnt  Pcnt        Volume    Pcnt     Occurrence    Outflow
  Storage Unit           1000 m3    Full  Loss  Loss       1000 m3    Full    days hr:min        CMS
  --------------------------------------------------------------------------------------------------
  T5                       0.232      46     0     0         0.347      69       0  04:19      0.033
  T4                       0.212      42     0     0         0.330      66       0  05:57      0.023
  T6                       0.402      67     0     0         0.600     100       0  03:28      0.075
  T3                       1.045      40     0     0         1.711      66       0  07:37      0.100
  T2                       0.388      39     0     0         0.581      58       0  06:13      0.025
  T1                       0.339      48     0     0         0.625      89       0  03:32      0.256
  
  
  ***********************
  Outfall Loading Summary
  ***********************
  
  -----------------------------------------------------------
                         Flow       Avg       Max       Total
                         Freq      Flow      Flow      Volume
  Outfall Node           Pcnt       CMS       CMS    10^6 ltr
  -----------------------------------------------------------
  Out_to_WWTP           99.01     0.170     0.256       4.758
  -----------------------------------------------------------
  System                99.01     0.170     0.256       4.758
  
  
  ********************
  Link Flow Summary
  ********************
  
  -----------------------------------------------------------------------------
                                 Maximum  Time of Max   Maximum    Max/    Max/
                                  |Flow|   Occurrence   |Veloc|    Full    Full
  Link                 Type          CMS  days hr:min     m/sec    Flow   Depth
  -----------------------------------------------------------------------------
  C1                   CONDUIT     0.033     0  04:21      1.03    0.01    0.10
  C6                   CONDUIT     0.048     0  03:03      1.24    0.76    0.54
  C2                   CONDUIT     0.023     0  06:09      0.94    0.03    0.16
  C9                   CONDUIT     0.064     0  03:02      1.04    0.22    0.35
  C16                  CONDUIT     0.249     0  03:02      1.44    0.02    0.10
  C3                   CONDUIT     0.100     0  07:42      1.72    0.04    0.13
  C19                  CONDUIT     0.025     0  06:30      0.61    0.01    0.14
  C11                  CONDUIT     0.152     0  06:10      1.69    0.01    0.08
  C20                  CONDUIT     0.318     0  03:01      2.10    0.01    0.09
  C22                  CONDUIT     0.106     0  03:01      1.26    0.05    0.22
  C12                  CONDUIT     0.075     0  03:50      1.12    0.01    0.08
  C17                  CONDUIT     0.423     0  03:01      2.36    0.02    0.11
  C10                  CONDUIT     0.347     0  03:01      1.66    0.04    0.56
  C13                  CONDUIT     0.468     0  03:03      1.45    0.03    0.56
  C18                  CONDUIT     0.221     0  03:01      1.72    0.01    0.53
  C23                  CONDUIT     0.502     0  03:02      1.24    0.06    0.58
  C4                   CONDUIT     0.161     0  03:01      1.98    0.04    0.57
  C7                   CONDUIT     0.107     0  03:01      1.43    0.03    0.56
  C14                  CONDUIT     0.256     0  03:33      2.04    0.01    0.08
  C5                   CONDUIT     0.050     0  03:01      1.22    0.85    0.77
  C8                   CONDUIT     0.066     0  03:01      1.29    0.83    0.61
  C15                  CONDUIT     0.253     0  03:01      2.56    0.81    0.59
  C21                  CONDUIT     0.108     0  03:01      1.64    0.62    0.45
  V4                   ORIFICE     0.023     0  06:00                      0.35
  V5                   ORIFICE     0.033     0  04:19                      1.00
  V1                   ORIFICE     0.256     0  03:32                      1.00
  V6                   ORIFICE     0.075     0  03:30                      0.43
  V3                   ORIFICE     0.100     0  07:40                      0.65
  V2                   ORIFICE     0.025     0  06:20                      0.24
  
  
  ***************************
  Flow Classification Summary
  ***************************
  
  -------------------------------------------------------------------------------------
                      Adjusted    ---------- Fraction of Time in Flow Class ---------- 
                       /Actual         Up    Down  Sub   Sup   Up    Down  Norm  Inlet 
  Conduit               Length    Dry  Dry   Dry   Crit  Crit  Crit  Crit  Ltd   Ctrl  
  -------------------------------------------------------------------------------------
  C1                      1.00   0.00  0.00  0.00  0.02  0.98  0.00  0.00  0.93  0.00
  C6                      1.00   0.00  0.00  0.00  0.01  0.99  0.00  0.00  0.00  0.00
  C2                      1.00   0.00  0.00  0.00  0.46  0.53  0.00  0.00  0.97  0.00
  C9                      1.00   0.00  0.00  0.00  1.00  0.00  0.00  0.00  1.00  0.00
  C16                     1.00   0.00  0.00  0.00  0.59  0.41  0.00  0.00  0.49  0.00
  C3                      1.00   0.00  0.00  0.00  0.04  0.95  0.00  0.00  0.56  0.00
  C19                     1.00   0.00  0.00  0.00  1.00  0.00  0.00  0.00  1.00  0.00
  C11                     1.00   0.00  0.00  0.00  0.35  0.65  0.00  0.00  1.00  0.00
  C20                     1.00   0.00  0.00  0.00  0.53  0.47  0.00  0.00  0.98  0.00
  C22                     1.00   0.00  0.00  0.00  0.78  0.22  0.00  0.00  1.00  0.00
  C12                     1.00   0.00  0.00  0.00  0.57  0.43  0.00  0.00  0.91  0.00
  C17                     1.00   0.00  0.00  0.00  0.30  0.70  0.00  0.00  0.95  0.00
  C10                     1.00   0.00  0.00  0.00  0.96  0.04  0.00  0.00  0.97  0.00
  C13                     1.00   0.00  0.00  0.00  0.87  0.13  0.00  0.00  0.90  0.00
  C18                     1.00   0.00  0.00  0.00  0.94  0.06  0.00  0.00  0.97  0.00
  C23                     1.00   0.00  0.00  0.00  0.88  0.12  0.00  0.00  0.94  0.00
  C4                      1.00   0.00  0.00  0.00  0.96  0.04  0.00  0.00  0.98  0.00
  C7                      1.00   0.00  0.00  0.00  0.95  0.05  0.00  0.00  0.97  0.00
  C14                     1.00   0.00  0.00  0.00  0.00  0.99  0.00  0.00  0.38  0.00
  C5                      1.00   0.00  0.00  0.00  0.89  0.11  0.00  0.00  0.98  0.00
  C8                      1.00   0.00  0.00  0.00  0.00  1.00  0.00  0.00  0.00  0.00
  C15                     1.00   0.00  0.00  0.00  0.00  1.00  0.00  0.00  0.00  0.00
  C21                     1.00   0.00  0.00  0.00  0.00  1.00  0.00  0.00  0.00  0.00
  
  
  *************************
  Conduit Surcharge Summary
  *************************
  
  ----------------------------------------------------------------------------
                                                           Hours        Hours 
                         --------- Hours Full --------   Above Full   Capacity
  Conduit                Both Ends  Upstream  Dnstream   Normal Flow   Limited
  ----------------------------------------------------------------------------
  C10                         0.01      0.01      5.57      0.01         0.01
  C13                         0.01      0.01      4.77      0.01         0.01
  C18                         0.01      0.01      4.86      0.01         0.01
  C23                         0.01      0.01      5.58      0.01         0.01
  C4                          0.01      0.01      5.78      0.01         0.01
  C7                          0.01      0.01      5.49      0.01         0.01
  

  Analysis begun on:  Fri Sep  3 17:40:37 2021
  Analysis ended on:  Fri Sep  3 17:40:37 2021
  Total elapsed time: < 1 sec