
  EPA STORM WATER MANAGEMENT MODEL - VERSION 5.1 (Build 5.3.0.dev0)
  --------------------------------------------------------------

  
  *********************************************************
  NOTE: The summary statistics displayed in this report are
  based on results found at every computational time step,  
  not just on results from each reporting time step.
  *********************************************************
  
  ****************
  Analysis Options
  ****************
  Flow Units ............... CMS
  Process Models:
    Rainfall/Runoff ........ YES
    RDII ................... NO
    Snowmelt ............... NO
    Groundwater ............ NO
    Flow Routing ........... YES
    Ponding Allowed ........ YES
    Water Quality .......... NO
  Infiltration Method ...... HORTON
  Flow Routing Method ...... DYNWAVE
  Surcharge Method ......... EXTRAN
  Starting Date ............ 08/28/2015 08:00:00
  Ending Date .............. 08/28/2015 15:50:00
  Antecedent Dry Days ...... 0.0
  Report Time Step ......... 00:01:00
  Wet Time Step ............ 00:01:00
  Dry Time Step ............ 00:01:00
  Routing Time Step ........ 5.00 sec
  Variable Time Step ....... YES
  Maximum Trials ........... 8
  Number of Threads ........ 1
  Head Tolerance ........... 0.001500 m
  
  
  **************************        Volume         Depth
  Runoff Quantity Continuity     hectare-m            mm
  **************************     ---------       -------
  Total Precipitation ......         0.488         2.709
  Evaporation Loss .........         0.000         0.000
  Infiltration Loss ........         0.000         0.000
  Surface Runoff ...........         0.466         2.587
  Final Storage ............         0.022         0.122
  Continuity Error (%) .....        -0.009
  
  
  **************************        Volume        Volume
  Flow Routing Continuity        hectare-m      10^6 ltr
  **************************     ---------     ---------
  Dry Weather Inflow .......         0.396         3.955
  Wet Weather Inflow .......         0.466         4.662
  Groundwater Inflow .......         0.000         0.000
  RDII Inflow ..............         0.000         0.000
  External Inflow ..........         0.000         0.000
  External Outflow .........         0.364         3.641
  Flooding Loss ............         0.000         0.000
  Evaporation Loss .........         0.000         0.000
  Exfiltration Loss ........         0.000         0.000
  Initial Stored Volume ....         0.000         0.000
  Final Stored Volume ......         0.443         4.433
  Continuity Error (%) .....         6.314
  
  
  *************************
  Highest Continuity Errors
  *************************
  Node T2 (37.73%)
  Node T6 (29.30%)
  Node T4 (23.96%)
  Node T3 (21.43%)
  Node T5 (21.17%)
  
  
  ***************************
  Time-Step Critical Elements
  ***************************
  None
  
  
  ********************************
  Highest Flow Instability Indexes
  ********************************
  All links are stable.
  
  
  *************************
  Routing Time Step Summary
  *************************
  Minimum Time Step           :     4.50 sec
  Average Time Step           :     5.00 sec
  Maximum Time Step           :     5.00 sec
  Percent in Steady State     :     0.00
  Average Iterations per Step :     2.00
  Percent Not Converging      :     0.00
  
  
  ***************************
  Subcatchment Runoff Summary
  ***************************
  
  ------------------------------------------------------------------------------------------------------------------------------
                            Total      Total      Total      Total     Imperv       Perv      Total       Total     Peak  Runoff
                           Precip      Runon       Evap      Infil     Runoff     Runoff     Runoff      Runoff   Runoff   Coeff
  Subcatchment                 mm         mm         mm         mm         mm         mm         mm    10^6 ltr      CMS
  ------------------------------------------------------------------------------------------------------------------------------
  SC01                       2.71       0.00       0.00       0.00       2.63       0.00       2.63        0.87     0.17   0.969
  SC02                       2.71       0.00       0.00       0.00       2.62       0.00       2.62        0.60     0.11   0.967
  SC03                       2.71       0.00       0.00       0.00       2.64       0.00       2.64        0.48     0.10   0.975
  SC04                       2.71       0.00       0.00       0.00       2.53       0.00       2.53        0.17     0.03   0.935
  SC05                       2.71       0.00       0.00       0.00       2.62       0.00       2.62        0.41     0.08   0.967
  SC06                       2.71       0.00       0.00       0.00       2.49       0.00       2.49        0.81     0.13   0.919
  SC07                       2.71       0.00       0.00       0.00       2.53       0.00       2.53        0.12     0.02   0.935
  SC08                       2.71       0.00       0.00       0.00       2.60       0.00       2.60        0.73     0.14   0.959
  SC09                       2.71       0.00       0.00       0.00       2.58       0.00       2.58        0.18     0.03   0.951
  SC010                      2.71       0.00       0.00       0.00       2.60       0.00       2.60        0.31     0.06   0.960
  
  
  ******************
  Node Depth Summary
  ******************
  
  ---------------------------------------------------------------------------------
                                 Average  Maximum  Maximum  Time of Max    Reported
                                   Depth    Depth      HGL   Occurrence   Max Depth
  Node                 Type       Meters   Meters   Meters  days hr:min      Meters
  ---------------------------------------------------------------------------------
  J1                   JUNCTION     0.06     0.11    34.11     0  03:01        0.11
  J3                   JUNCTION     0.08     0.11    18.11     0  07:30        0.11
  CSO7                 JUNCTION     0.09     0.14    34.14     0  03:01        0.13
  J5                   JUNCTION     0.05     0.09    32.09     0  03:02        0.09
  CSO9                 JUNCTION     0.09     0.17    40.17     0  03:01        0.17
  J8                   JUNCTION     0.09     0.15    36.15     0  03:02        0.15
  CSO8                 JUNCTION     0.10     0.22    32.22     0  03:01        0.22
  J10                  JUNCTION     0.08     0.16    29.16     0  03:01        0.16
  J13                  JUNCTION     0.05     0.10    29.10     0  03:01        0.10
  J15                  JUNCTION     0.13     0.20    15.20     0  03:03        0.20
  J16                  JUNCTION     0.05     0.11    30.11     0  03:01        0.11
  CSO10                JUNCTION     0.09     0.20    30.20     0  03:01        0.20
  J12                  JUNCTION     0.11     0.18    26.18     0  03:02        0.18
  J4                   JUNCTION     0.10     0.16    33.16     0  03:03        0.16
  J6                   JUNCTION     0.05     0.06    25.06     0  06:39        0.06
  J2                   JUNCTION     0.06     0.06    25.06     0  05:04        0.06
  J19                  JUNCTION     0.11     0.15     8.15     0  03:35        0.15
  J9                   JUNCTION     0.07     0.10    29.10     0  06:18        0.10
  J14                  JUNCTION     0.08     0.12    20.12     0  07:21        0.12
  J17                  JUNCTION     0.04     0.06    20.06     0  06:20        0.06
  J7                   JUNCTION     0.07     0.12    39.12     0  03:03        0.12
  J11                  JUNCTION     0.08     0.17    31.17     0  03:02        0.17
  J18                  JUNCTION     0.04     0.09    29.09     0  03:02        0.09
  Out_to_WWTP          OUTFALL      0.11     0.15     6.15     0  03:35        0.15
  T5                   STORAGE      1.52     2.25    29.25     0  05:02        2.25
  T4                   STORAGE      1.43     2.32    29.32     0  06:25        2.32
  T6                   STORAGE      2.49     3.98    34.98     0  06:05        3.98
  T3                   STORAGE      1.20     2.05    24.05     0  07:50        2.05
  T2                   STORAGE      1.26     1.95    22.95     0  07:50        1.95
  T1                   STORAGE      1.41     2.52    12.52     0  03:35        2.52
  
  
  *******************
  Node Inflow Summary
  *******************
  
  -------------------------------------------------------------------------------------------------
                                  Maximum  Maximum                  Lateral       Total        Flow
                                  Lateral    Total  Time of Max      Inflow      Inflow     Balance
                                   Inflow   Inflow   Occurrence      Volume      Volume       Error
  Node                 Type           CMS      CMS  days hr:min    10^6 ltr    10^6 ltr     Percent
  -------------------------------------------------------------------------------------------------
  J1                   JUNCTION     0.101    0.101     0  03:01       0.971       0.971       0.079
  J3                   JUNCTION     0.000    0.122     0  07:25           0        2.08       1.042
  CSO7                 JUNCTION     0.032    0.032     0  03:01       0.411       0.411       0.109
  J5                   JUNCTION     0.035    0.065     0  03:01       0.302       0.709       0.243
  CSO9                 JUNCTION     0.040    0.040     0  03:01       0.374       0.374       0.117
  J8                   JUNCTION     0.170    0.208     0  03:01        1.75        2.12       0.270
  CSO8                 JUNCTION     0.146    0.146     0  03:01        1.02        1.02       0.053
  J10                  JUNCTION     0.111    0.252     0  03:01       0.861        1.87       0.307
  J13                  JUNCTION     0.134    0.134     0  03:01        1.06        1.06      -0.191
  J15                  JUNCTION     0.000    0.348     0  03:01           0        4.19       1.249
  J16                  JUNCTION     0.190    0.190     0  03:01        1.42        1.42       0.065
  CSO10                JUNCTION     0.063    0.063     0  03:01       0.445       0.445       0.096
  J12                  JUNCTION     0.000    0.273     0  03:01           0        2.92       0.874
  J4                   JUNCTION     0.000    0.032     0  03:01           0        0.41       0.916
  J6                   JUNCTION     0.000    0.019     0  06:30           0       0.315       0.976
  J2                   JUNCTION     0.000    0.026     0  05:02           0       0.568       0.689
  J19                  JUNCTION     0.000    0.191     0  03:35           0        3.65       0.223
  J9                   JUNCTION     0.000    0.067     0  06:10           0        1.07       1.438
  J14                  JUNCTION     0.000    0.078     0  07:28           0        1.21       0.258
  J17                  JUNCTION     0.000    0.021     0  07:30           0       0.274       0.999
  J7                   JUNCTION     0.000    0.040     0  03:01           0       0.373       0.867
  J11                  JUNCTION     0.000    0.145     0  03:01           0        1.02       0.561
  J18                  JUNCTION     0.000    0.062     0  03:01           0       0.444       0.272
  Out_to_WWTP          OUTFALL      0.000    0.191     0  03:35           0        3.64       0.000
  T5                   STORAGE      0.000    0.100     0  03:01           0        0.97      26.850
  T4                   STORAGE      0.000    0.065     0  03:02           0       0.707      31.502
  T6                   STORAGE      0.000    0.204     0  03:02           0        2.12      41.437
  T3                   STORAGE      0.000    0.270     0  03:02           0        2.89      27.271
  T2                   STORAGE      0.000    0.132     0  03:01           0        1.07      60.578
  T1                   STORAGE      0.000    0.338     0  03:03           0        4.14       7.281
  
  
  **********************
  Node Surcharge Summary
  **********************
  
  No nodes were surcharged.
  
  
  *********************
  Node Flooding Summary
  *********************
  
  No nodes were flooded.
  
  
  **********************
  Storage Volume Summary
  **********************
  
  --------------------------------------------------------------------------------------------------
                         Average     Avg  Evap Exfil       Maximum     Max    Time of Max    Maximum
                          Volume    Pcnt  Pcnt  Pcnt        Volume    Pcnt     Occurrence    Outflow
  Storage Unit           1000 m3    Full  Loss  Loss       1000 m3    Full    days hr:min        CMS
  --------------------------------------------------------------------------------------------------
  T5                       0.152      30     0     0         0.225      45       0  05:02      0.026
  T4                       0.143      29     0     0         0.232      46       0  06:25      0.019
  T6                       0.299      50     0     0         0.478      80       0  06:05      0.067
  T3                       0.625      24     0     0         1.065      41       0  07:50      0.078
  T2                       0.252      25     0     0         0.389      39       0  07:50      0.021
  T1                       0.198      28     0     0         0.353      50       0  03:35      0.191
  
  
  ***********************
  Outfall Loading Summary
  ***********************
  
  -----------------------------------------------------------
                         Flow       Avg       Max       Total
                         Freq      Flow      Flow      Volume
  Outfall Node           Pcnt       CMS       CMS    10^6 ltr
  -----------------------------------------------------------
  Out_to_WWTP           99.01     0.130     0.191       3.641
  -----------------------------------------------------------
  System                99.01     0.130     0.191       3.641
  
  
  ********************
  Link Flow Summary
  ********************
  
  -----------------------------------------------------------------------------
                                 Maximum  Time of Max   Maximum    Max/    Max/
                                  |Flow|   Occurrence   |Veloc|    Full    Full
  Link                 Type          CMS  days hr:min     m/sec    Flow   Depth
  -----------------------------------------------------------------------------
  C1                   CONDUIT     0.026     0  05:04      0.96    0.01    0.09
  C6                   CONDUIT     0.031     0  03:04      1.12    0.49    0.41
  C2                   CONDUIT     0.019     0  06:39      0.90    0.02    0.14
  C9                   CONDUIT     0.039     0  03:03      0.89    0.13    0.27
  C16                  CONDUIT     0.142     0  03:02      1.21    0.01    0.08
  C3                   CONDUIT     0.078     0  07:23      1.58    0.03    0.12
  C19                  CONDUIT     0.020     0  06:20      0.53    0.01    0.12
  C11                  CONDUIT     0.122     0  07:30      1.56    0.01    0.07
  C20                  CONDUIT     0.188     0  03:01      1.70    0.01    0.08
  C22                  CONDUIT     0.061     0  03:02      0.99    0.03    0.18
  C12                  CONDUIT     0.067     0  06:21      1.08    0.01    0.06
  C17                  CONDUIT     0.247     0  03:01      2.00    0.01    0.08
  C10                  CONDUIT     0.204     0  03:02      1.66    0.02    0.55
  C13                  CONDUIT     0.270     0  03:02      1.41    0.02    0.53
  C18                  CONDUIT     0.132     0  03:01      1.72    0.00    0.50
  C23                  CONDUIT     0.338     0  03:03      1.24    0.04    0.57
  C4                   CONDUIT     0.100     0  03:01      1.98    0.02    0.55
  C7                   CONDUIT     0.065     0  03:02      1.43    0.02    0.54
  C14                  CONDUIT     0.191     0  03:35      1.87    0.01    0.07
  C5                   CONDUIT     0.032     0  03:01      1.22    0.55    0.58
  C8                   CONDUIT     0.040     0  03:01      1.14    0.50    0.45
  C15                  CONDUIT     0.145     0  03:01      2.19    0.46    0.43
  C21                  CONDUIT     0.062     0  03:01      1.43    0.36    0.33
  V4                   ORIFICE     0.019     0  06:30                      0.35
  V5                   ORIFICE     0.026     0  05:02                      1.00
  V1                   ORIFICE     0.191     0  03:35                      1.00
  V6                   ORIFICE     0.067     0  06:10                      0.43
  V3                   ORIFICE     0.078     0  07:28                      0.65
  V2                   ORIFICE     0.021     0  07:30                      0.24
  
  
  ***************************
  Flow Classification Summary
  ***************************
  
  -------------------------------------------------------------------------------------
                      Adjusted    ---------- Fraction of Time in Flow Class ---------- 
                       /Actual         Up    Down  Sub   Sup   Up    Down  Norm  Inlet 
  Conduit               Length    Dry  Dry   Dry   Crit  Crit  Crit  Crit  Ltd   Ctrl  
  -------------------------------------------------------------------------------------
  C1                      1.00   0.00  0.00  0.00  0.02  0.98  0.00  0.00  0.94  0.00
  C6                      1.00   0.00  0.00  0.00  0.01  0.99  0.00  0.00  0.00  0.00
  C2                      1.00   0.00  0.00  0.00  0.52  0.48  0.00  0.00  0.95  0.00
  C9                      1.00   0.00  0.00  0.00  1.00  0.00  0.00  0.00  1.00  0.00
  C16                     1.00   0.00  0.00  0.00  0.65  0.35  0.00  0.00  0.55  0.00
  C3                      1.00   0.00  0.00  0.00  0.05  0.95  0.00  0.00  0.46  0.00
  C19                     1.00   0.00  0.00  0.00  1.00  0.00  0.00  0.00  1.00  0.00
  C11                     1.00   0.00  0.00  0.00  0.31  0.69  0.00  0.00  1.00  0.00
  C20                     1.00   0.00  0.00  0.00  0.53  0.47  0.00  0.00  0.98  0.00
  C22                     1.00   0.00  0.00  0.00  0.96  0.04  0.00  0.00  1.00  0.00
  C12                     1.00   0.00  0.00  0.00  0.58  0.42  0.00  0.00  0.90  0.00
  C17                     1.00   0.00  0.00  0.00  0.24  0.76  0.00  0.00  0.97  0.00
  C10                     1.00   0.00  0.00  0.00  0.96  0.04  0.00  0.00  0.97  0.00
  C13                     1.00   0.00  0.00  0.00  0.87  0.13  0.00  0.00  0.90  0.00
  C18                     1.00   0.00  0.00  0.00  0.94  0.06  0.00  0.00  0.97  0.00
  C23                     1.00   0.00  0.00  0.00  0.88  0.12  0.00  0.00  0.94  0.00
  C4                      1.00   0.00  0.00  0.00  0.96  0.04  0.00  0.00  0.98  0.00
  C7                      1.00   0.00  0.00  0.00  0.94  0.06  0.00  0.00  0.97  0.00
  C14                     1.00   0.00  0.00  0.00  0.00  0.99  0.00  0.00  0.57  0.00
  C5                      1.00   0.00  0.00  0.00  0.91  0.09  0.00  0.00  0.98  0.00
  C8                      1.00   0.00  0.00  0.00  0.00  1.00  0.00  0.00  0.00  0.00
  C15                     1.00   0.00  0.00  0.00  0.00  1.00  0.00  0.00  0.00  0.00
  C21                     1.00   0.00  0.00  0.00  0.00  1.00  0.00  0.00  0.00  0.00
  
  
  *************************
  Conduit Surcharge Summary
  *************************
  
  ----------------------------------------------------------------------------
                                                           Hours        Hours 
                         --------- Hours Full --------   Above Full   Capacity
  Conduit                Both Ends  Upstream  Dnstream   Normal Flow   Limited
  ----------------------------------------------------------------------------
  C10                         0.01      0.01      5.19      0.01         0.01
  C13                         0.01      0.01      0.59      0.01         0.01
  C23                         0.01      0.01      5.06      0.01         0.01
  C4                          0.01      0.01      5.39      0.01         0.01
  C7                          0.01      0.01      5.03      0.01         0.01
  

  Analysis begun on:  Fri Sep  3 17:41:25 2021
  Analysis ended on:  Fri Sep  3 17:41:25 2021
  Total elapsed time: < 1 sec