
  EPA STORM WATER MANAGEMENT MODEL - VERSION 5.1 (Build 5.3.0.dev0)
  --------------------------------------------------------------

  
  *********************************************************
  NOTE: The summary statistics displayed in this report are
  based on results found at every computational time step,  
  not just on results from each reporting time step.
  *********************************************************
  
  ****************
  Analysis Options
  ****************
  Flow Units ............... CMS
  Process Models:
    Rainfall/Runoff ........ YES
    RDII ................... NO
    Snowmelt ............... NO
    Groundwater ............ NO
    Flow Routing ........... YES
    Ponding Allowed ........ YES
    Water Quality .......... NO
  Infiltration Method ...... HORTON
  Flow Routing Method ...... DYNWAVE
  Surcharge Method ......... EXTRAN
  Starting Date ............ 08/28/2015 08:00:00
  Ending Date .............. 08/28/2015 15:50:00
  Antecedent Dry Days ...... 0.0
  Report Time Step ......... 00:01:00
  Wet Time Step ............ 00:01:00
  Dry Time Step ............ 00:01:00
  Routing Time Step ........ 5.00 sec
  Variable Time Step ....... YES
  Maximum Trials ........... 8
  Number of Threads ........ 1
  Head Tolerance ........... 0.001500 m
  
  
  **************************        Volume         Depth
  Runoff Quantity Continuity     hectare-m            mm
  **************************     ---------       -------
  Total Precipitation ......         0.649         3.604
  Evaporation Loss .........         0.000         0.000
  Infiltration Loss ........         0.000         0.000
  Surface Runoff ...........         0.627         3.480
  Final Storage ............         0.022         0.125
  Continuity Error (%) .....        -0.008
  
  
  **************************        Volume        Volume
  Flow Routing Continuity        hectare-m      10^6 ltr
  **************************     ---------     ---------
  Dry Weather Inflow .......         0.396         3.955
  Wet Weather Inflow .......         0.627         6.271
  Groundwater Inflow .......         0.000         0.000
  RDII Inflow ..............         0.000         0.000
  External Inflow ..........         0.000         0.000
  External Outflow .........         0.409         4.090
  Flooding Loss ............         0.000         0.000
  Evaporation Loss .........         0.000         0.000
  Exfiltration Loss ........         0.000         0.000
  Initial Stored Volume ....         0.000         0.000
  Final Stored Volume ......         0.510         5.102
  Continuity Error (%) .....        10.111
  
  
  *************************
  Highest Continuity Errors
  *************************
  Node T2 (36.19%)
  Node T6 (30.76%)
  Node T4 (25.38%)
  Node T3 (23.91%)
  Node T5 (21.98%)
  
  
  ***************************
  Time-Step Critical Elements
  ***************************
  None
  
  
  ********************************
  Highest Flow Instability Indexes
  ********************************
  All links are stable.
  
  
  *************************
  Routing Time Step Summary
  *************************
  Minimum Time Step           :     4.50 sec
  Average Time Step           :     5.00 sec
  Maximum Time Step           :     5.00 sec
  Percent in Steady State     :     0.00
  Average Iterations per Step :     2.00
  Percent Not Converging      :     0.00
  
  
  ***************************
  Subcatchment Runoff Summary
  ***************************
  
  ------------------------------------------------------------------------------------------------------------------------------
                            Total      Total      Total      Total     Imperv       Perv      Total       Total     Peak  Runoff
                           Precip      Runon       Evap      Infil     Runoff     Runoff     Runoff      Runoff   Runoff   Coeff
  Subcatchment                 mm         mm         mm         mm         mm         mm         mm    10^6 ltr      CMS
  ------------------------------------------------------------------------------------------------------------------------------
  SC01                       3.60       0.00       0.00       0.00       3.52       0.00       3.52        1.16     0.23   0.977
  SC02                       3.60       0.00       0.00       0.00       3.51       0.00       3.51        0.80     0.16   0.975
  SC03                       3.60       0.00       0.00       0.00       3.54       0.00       3.54        0.64     0.13   0.981
  SC04                       3.60       0.00       0.00       0.00       3.42       0.00       3.42        0.24     0.04   0.949
  SC05                       3.60       0.00       0.00       0.00       3.51       0.00       3.51        0.55     0.11   0.975
  SC06                       3.60       0.00       0.00       0.00       3.38       0.00       3.38        1.10     0.19   0.937
  SC07                       3.60       0.00       0.00       0.00       3.42       0.00       3.42        0.16     0.03   0.950
  SC08                       3.60       0.00       0.00       0.00       3.49       0.00       3.49        0.98     0.18   0.969
  SC09                       3.60       0.00       0.00       0.00       3.47       0.00       3.47        0.24     0.04   0.962
  SC010                      3.60       0.00       0.00       0.00       3.49       0.00       3.49        0.41     0.08   0.970
  
  
  ******************
  Node Depth Summary
  ******************
  
  ---------------------------------------------------------------------------------
                                 Average  Maximum  Maximum  Time of Max    Reported
                                   Depth    Depth      HGL   Occurrence   Max Depth
  Node                 Type       Meters   Meters   Meters  days hr:min      Meters
  ---------------------------------------------------------------------------------
  J1                   JUNCTION     0.07     0.12    34.12     0  03:01        0.12
  J3                   JUNCTION     0.08     0.11    18.11     0  06:32        0.11
  CSO7                 JUNCTION     0.09     0.16    34.16     0  03:01        0.16
  J5                   JUNCTION     0.06     0.10    32.10     0  03:02        0.10
  CSO9                 JUNCTION     0.09     0.20    40.20     0  03:01        0.20
  J8                   JUNCTION     0.10     0.17    36.17     0  03:01        0.17
  CSO8                 JUNCTION     0.11     0.27    32.27     0  03:01        0.27
  J10                  JUNCTION     0.08     0.18    29.18     0  03:01        0.18
  J13                  JUNCTION     0.06     0.11    29.11     0  03:01        0.11
  J15                  JUNCTION     0.13     0.22    15.22     0  03:03        0.22
  J16                  JUNCTION     0.06     0.13    30.13     0  03:01        0.12
  CSO10                JUNCTION     0.10     0.23    30.23     0  03:01        0.23
  J12                  JUNCTION     0.11     0.20    26.20     0  03:02        0.20
  J4                   JUNCTION     0.11     0.18    33.18     0  03:03        0.18
  J6                   JUNCTION     0.05     0.06    25.06     0  06:29        0.06
  J2                   JUNCTION     0.06     0.07    25.07     0  04:48        0.07
  J19                  JUNCTION     0.12     0.15     8.15     0  03:31        0.15
  J9                   JUNCTION     0.08     0.11    29.11     0  05:15        0.11
  J14                  JUNCTION     0.08     0.13    20.13     0  07:10        0.13
  J17                  JUNCTION     0.04     0.06    20.06     0  06:12        0.06
  J7                   JUNCTION     0.07     0.14    39.14     0  03:02        0.14
  J11                  JUNCTION     0.08     0.19    31.19     0  03:01        0.19
  J18                  JUNCTION     0.05     0.11    29.11     0  03:02        0.11
  Out_to_WWTP          OUTFALL      0.12     0.15     6.15     0  03:32        0.15
  T5                   STORAGE      1.88     2.79    29.79     0  04:46        2.79
  T4                   STORAGE      1.76     2.82    29.82     0  06:14        2.82
  T6                   STORAGE      3.06     4.82    35.82     0  05:37        4.82
  T3                   STORAGE      1.64     2.81    24.81     0  07:50        2.81
  T2                   STORAGE      1.55     2.33    23.33     0  05:58        2.33
  T1                   STORAGE      1.78     3.22    13.22     0  03:31        3.22
  
  
  *******************
  Node Inflow Summary
  *******************
  
  -------------------------------------------------------------------------------------------------
                                  Maximum  Maximum                  Lateral       Total        Flow
                                  Lateral    Total  Time of Max      Inflow      Inflow     Balance
                                   Inflow   Inflow   Occurrence      Volume      Volume       Error
  Node                 Type           CMS      CMS  days hr:min    10^6 ltr    10^6 ltr     Percent
  -------------------------------------------------------------------------------------------------
  J1                   JUNCTION     0.129    0.129     0  03:01        1.11        1.11       0.061
  J3                   JUNCTION     0.000    0.138     0  06:30           0         2.1       1.045
  CSO7                 JUNCTION     0.040    0.040     0  03:01       0.453       0.453       0.099
  J5                   JUNCTION     0.047    0.085     0  03:01       0.364       0.812       0.206
  CSO9                 JUNCTION     0.052    0.052     0  03:01       0.435       0.435       0.101
  J8                   JUNCTION     0.224    0.274     0  03:01        2.04        2.47       0.224
  CSO8                 JUNCTION     0.195    0.195     0  03:01        1.27        1.27       0.042
  J10                  JUNCTION     0.144    0.333     0  03:01        1.02        2.29       0.246
  J13                  JUNCTION     0.174    0.174     0  03:01        1.27        1.27      -0.202
  J15                  JUNCTION     0.000    0.430     0  03:01           0        4.69       1.153
  J16                  JUNCTION     0.250    0.250     0  03:01        1.72        1.72       0.045
  CSO10                JUNCTION     0.084    0.084     0  03:01        0.55        0.55       0.078
  J12                  JUNCTION     0.000    0.357     0  03:01           0        3.44       0.378
  J4                   JUNCTION     0.000    0.040     0  03:01           0       0.453       0.832
  J6                   JUNCTION     0.000    0.021     0  06:20           0       0.331       0.633
  J2                   JUNCTION     0.000    0.029     0  04:46           0       0.629       0.664
  J19                  JUNCTION     0.000    0.217     0  03:31           0         4.1       0.207
  J9                   JUNCTION     0.000    0.074     0  05:40           0        1.17       0.761
  J14                  JUNCTION     0.000    0.092     0  07:10           0        1.15       0.308
  J17                  JUNCTION     0.000    0.023     0  06:00           0       0.357       1.356
  J7                   JUNCTION     0.000    0.052     0  03:01           0       0.435       0.741
  J11                  JUNCTION     0.000    0.195     0  03:01           0        1.27       0.458
  J18                  JUNCTION     0.000    0.083     0  03:01           0       0.549       0.213
  Out_to_WWTP          OUTFALL      0.000    0.217     0  03:32           0        4.09       0.000
  T5                   STORAGE      0.000    0.128     0  03:01           0        1.11      28.175
  T4                   STORAGE      0.000    0.084     0  03:02           0       0.811      34.015
  T6                   STORAGE      0.000    0.269     0  03:02           0        2.47      44.418
  T3                   STORAGE      0.000    0.353     0  03:02           0        3.43      31.429
  T2                   STORAGE      0.000    0.172     0  03:01           0        1.27      56.712
  T1                   STORAGE      0.000    0.414     0  03:03           0        4.64       7.070
  
  
  **********************
  Node Surcharge Summary
  **********************
  
  No nodes were surcharged.
  
  
  *********************
  Node Flooding Summary
  *********************
  
  No nodes were flooded.
  
  
  **********************
  Storage Volume Summary
  **********************
  
  --------------------------------------------------------------------------------------------------
                         Average     Avg  Evap Exfil       Maximum     Max    Time of Max    Maximum
                          Volume    Pcnt  Pcnt  Pcnt        Volume    Pcnt     Occurrence    Outflow
  Storage Unit           1000 m3    Full  Loss  Loss       1000 m3    Full    days hr:min        CMS
  --------------------------------------------------------------------------------------------------
  T5                       0.188      38     0     0         0.279      56       0  04:46      0.029
  T4                       0.176      35     0     0         0.282      56       0  06:14      0.021
  T6                       0.367      61     0     0         0.578      96       0  05:37      0.074
  T3                       0.852      33     0     0         1.462      56       0  07:50      0.092
  T2                       0.309      31     0     0         0.467      47       0  05:58      0.023
  T1                       0.250      36     0     0         0.451      64       0  03:31      0.217
  
  
  ***********************
  Outfall Loading Summary
  ***********************
  
  -----------------------------------------------------------
                         Flow       Avg       Max       Total
                         Freq      Flow      Flow      Volume
  Outfall Node           Pcnt       CMS       CMS    10^6 ltr
  -----------------------------------------------------------
  Out_to_WWTP           99.01     0.146     0.217       4.090
  -----------------------------------------------------------
  System                99.01     0.146     0.217       4.090
  
  
  ********************
  Link Flow Summary
  ********************
  
  -----------------------------------------------------------------------------
                                 Maximum  Time of Max   Maximum    Max/    Max/
                                  |Flow|   Occurrence   |Veloc|    Full    Full
  Link                 Type          CMS  days hr:min     m/sec    Flow   Depth
  -----------------------------------------------------------------------------
  C1                   CONDUIT     0.029     0  04:48      0.99    0.01    0.09
  C6                   CONDUIT     0.039     0  03:03      1.18    0.62    0.47
  C2                   CONDUIT     0.021     0  06:29      0.91    0.02    0.15
  C9                   CONDUIT     0.050     0  03:02      0.96    0.17    0.31
  C16                  CONDUIT     0.191     0  03:02      1.32    0.02    0.09
  C3                   CONDUIT     0.090     0  07:10      1.67    0.03    0.12
  C19                  CONDUIT     0.023     0  06:13      0.61    0.01    0.13
  C11                  CONDUIT     0.131     0  06:32      1.56    0.01    0.08
  C20                  CONDUIT     0.248     0  03:01      1.91    0.01    0.09
  C22                  CONDUIT     0.082     0  03:02      1.13    0.04    0.20
  C12                  CONDUIT     0.074     0  05:15      1.12    0.01    0.07
  C17                  CONDUIT     0.328     0  03:01      2.19    0.02    0.09
  C10                  CONDUIT     0.269     0  03:02      1.66    0.03    0.56
  C13                  CONDUIT     0.353     0  03:02      1.38    0.02    0.53
  C18                  CONDUIT     0.172     0  03:01      1.72    0.01    0.52
  C23                  CONDUIT     0.414     0  03:03      1.24    0.05    0.57
  C4                   CONDUIT     0.128     0  03:01      1.98    0.03    0.56
  C7                   CONDUIT     0.084     0  03:02      1.43    0.02    0.55
  C14                  CONDUIT     0.217     0  03:32      1.94    0.01    0.08
  C5                   CONDUIT     0.040     0  03:01      1.22    0.69    0.66
  C8                   CONDUIT     0.052     0  03:01      1.22    0.65    0.53
  C15                  CONDUIT     0.195     0  03:01      2.39    0.62    0.50
  C21                  CONDUIT     0.083     0  03:01      1.54    0.48    0.38
  V4                   ORIFICE     0.021     0  06:20                      0.35
  V5                   ORIFICE     0.029     0  04:46                      1.00
  V1                   ORIFICE     0.217     0  03:31                      1.00
  V6                   ORIFICE     0.074     0  05:40                      0.43
  V3                   ORIFICE     0.092     0  07:10                      0.65
  V2                   ORIFICE     0.023     0  06:00                      0.24
  
  
  ***************************
  Flow Classification Summary
  ***************************
  
  -------------------------------------------------------------------------------------
                      Adjusted    ---------- Fraction of Time in Flow Class ---------- 
                       /Actual         Up    Down  Sub   Sup   Up    Down  Norm  Inlet 
  Conduit               Length    Dry  Dry   Dry   Crit  Crit  Crit  Crit  Ltd   Ctrl  
  -------------------------------------------------------------------------------------
  C1                      1.00   0.00  0.00  0.00  0.00  1.00  0.00  0.00  0.93  0.00
  C6                      1.00   0.00  0.00  0.00  0.01  0.99  0.00  0.00  0.00  0.00
  C2                      1.00   0.00  0.00  0.00  0.49  0.51  0.00  0.00  0.97  0.00
  C9                      1.00   0.00  0.00  0.00  1.00  0.00  0.00  0.00  1.00  0.00
  C16                     1.00   0.00  0.00  0.00  0.62  0.38  0.00  0.00  0.51  0.00
  C3                      1.00   0.00  0.00  0.00  0.05  0.95  0.00  0.00  0.66  0.00
  C19                     1.00   0.00  0.00  0.00  1.00  0.00  0.00  0.00  1.00  0.00
  C11                     1.00   0.00  0.00  0.00  0.33  0.67  0.00  0.00  1.00  0.00
  C20                     1.00   0.00  0.00  0.00  0.53  0.47  0.00  0.00  0.98  0.00
  C22                     1.00   0.00  0.00  0.00  0.84  0.16  0.00  0.00  1.00  0.00
  C12                     1.00   0.00  0.00  0.00  0.56  0.44  0.00  0.00  0.94  0.00
  C17                     1.00   0.00  0.00  0.00  0.27  0.73  0.00  0.00  0.97  0.00
  C10                     1.00   0.00  0.00  0.00  0.96  0.04  0.00  0.00  0.98  0.00
  C13                     1.00   0.00  0.00  0.00  0.86  0.14  0.00  0.00  0.90  0.00
  C18                     1.00   0.00  0.00  0.00  0.94  0.06  0.00  0.00  0.97  0.00
  C23                     1.00   0.00  0.00  0.00  0.87  0.13  0.00  0.00  0.94  0.00
  C4                      1.00   0.00  0.00  0.00  0.96  0.04  0.00  0.00  0.98  0.00
  C7                      1.00   0.00  0.00  0.00  0.95  0.05  0.00  0.00  0.97  0.00
  C14                     1.00   0.00  0.00  0.00  0.00  0.99  0.00  0.00  0.55  0.00
  C5                      1.00   0.00  0.00  0.00  0.88  0.12  0.00  0.00  0.98  0.00
  C8                      1.00   0.00  0.00  0.00  0.00  1.00  0.00  0.00  0.00  0.00
  C15                     1.00   0.00  0.00  0.00  0.00  1.00  0.00  0.00  0.00  0.00
  C21                     1.00   0.00  0.00  0.00  0.00  1.00  0.00  0.00  0.00  0.00
  
  
  *************************
  Conduit Surcharge Summary
  *************************
  
  ----------------------------------------------------------------------------
                                                           Hours        Hours 
                         --------- Hours Full --------   Above Full   Capacity
  Conduit                Both Ends  Upstream  Dnstream   Normal Flow   Limited
  ----------------------------------------------------------------------------
  C10                         0.01      0.01      5.39      0.01         0.01
  C13                         0.01      0.01      4.25      0.01         0.01
  C18                         0.01      0.01      4.35      0.01         0.01
  C23                         0.01      0.01      5.36      0.01         0.01
  C4                          0.01      0.01      5.61      0.01         0.01
  C7                          0.01      0.01      5.27      0.01         0.01
  

  Analysis begun on:  Fri Sep  3 17:43:49 2021
  Analysis ended on:  Fri Sep  3 17:43:50 2021
  Total elapsed time: 00:00:01