
  EPA STORM WATER MANAGEMENT MODEL - VERSION 5.1 (Build 5.3.0.dev0)
  --------------------------------------------------------------

  WARNING 04: minimum elevation drop used for Conduit WS02004404WS02004405
  WARNING 03: negative offset ignored for Link YS02001904YS02001907
  
  *********************************************************
  NOTE: The summary statistics displayed in this report are
  based on results found at every computational time step,  
  not just on results from each reporting time step.
  *********************************************************
  
  ****************
  Analysis Options
  ****************
  Flow Units ............... LPS
  Process Models:
    Rainfall/Runoff ........ YES
    RDII ................... NO
    Snowmelt ............... NO
    Groundwater ............ NO
    Flow Routing ........... YES
    Ponding Allowed ........ NO
    Water Quality .......... YES
  Infiltration Method ...... HORTON
  Flow Routing Method ...... DYNWAVE
  Surcharge Method ......... EXTRAN
  Starting Date ............ 08/28/2015 08:00:00
  Ending Date .............. 08/28/2015 15:50:00
  Antecedent Dry Days ...... 8.0
  Report Time Step ......... 00:01:00
  Wet Time Step ............ 00:01:00
  Dry Time Step ............ 00:01:00
  Routing Time Step ........ 5.00 sec
  Variable Time Step ....... YES
  Maximum Trials ........... 8
  Number of Threads ........ 4
  Head Tolerance ........... 0.001500 m
  
  
  **************************        Volume         Depth
  Runoff Quantity Continuity     hectare-m            mm
  **************************     ---------       -------
  Total Precipitation ......         5.556        12.164
  Evaporation Loss .........         0.000         0.000
  Infiltration Loss ........         1.002         2.194
  Surface Runoff ...........         3.688         8.075
  Final Storage ............         0.866         1.897
  Continuity Error (%) .....        -0.019
  
  
  **************************           COD            SS            TN            TP         NH4-N
  Runoff Quality Continuity             kg            kg            kg            kg            kg
  **************************    ----------    ----------    ----------    ----------    ----------
  Initial Buildup ..........     41378.656     70582.865      1804.177       168.684      1032.807
  Surface Buildup ..........        19.275        34.271         2.335         0.213         1.362
  Wet Deposition ...........         0.000         0.000         0.000         0.000         0.000
  Sweeping Removal .........         0.000         0.000         0.000         0.000         0.000
  Infiltration Loss ........        84.023       157.502         1.599         0.111         0.761
  BMP Removal ..............         0.000         0.000         0.000         0.000         0.000
  Surface Runoff ...........      3122.074      5752.154        60.620         4.098        28.771
  Remaining Buildup ........     38190.779     64705.500      1744.271       164.686      1004.628
  Continuity Error (%) .....         0.003         0.003         0.001         0.001         0.001
  
  
  **************************        Volume        Volume
  Flow Routing Continuity        hectare-m      10^6 ltr
  **************************     ---------     ---------
  Dry Weather Inflow .......         0.616         6.165
  Wet Weather Inflow .......         3.687        36.872
  Groundwater Inflow .......         0.000         0.000
  RDII Inflow ..............         0.000         0.000
  External Inflow ..........         0.102         1.024
  External Outflow .........         1.843        18.429
  Flooding Loss ............         2.116        21.157
  Evaporation Loss .........         0.000         0.000
  Exfiltration Loss ........         0.000         0.000
  Initial Stored Volume ....         0.076         0.761
  Final Stored Volume ......         0.637         6.373
  Continuity Error (%) .....        -2.539
  
  
  **************************           COD            SS            TN            TP         NH4-N
  Quality Routing Continuity            kg            kg            kg            kg            kg
  **************************    ----------    ----------    ----------    ----------    ----------
  Dry Weather Inflow .......      1541.201      2465.922       147.955        18.494        92.472
  Wet Weather Inflow .......      3121.445      5751.118        60.606         4.097        28.764
  Groundwater Inflow .......         0.000         0.000         0.000         0.000         0.000
  RDII Inflow ..............         0.000         0.000         0.000         0.000         0.000
  External Inflow ..........       183.418       293.469        17.608         2.201        11.005
  External Outflow .........      2218.585      3777.931       150.151        17.841        91.312
  Flooding Loss ............      1953.784      3579.972        49.151         4.192        25.645
  Exfiltration Loss ........         0.000         0.000         0.000         0.000         0.000
  Mass Reacted .............         0.000         0.000         0.000         0.000         0.000
  Initial Stored Mass ......         0.000         0.000         0.000         0.000         0.000
  Final Stored Mass ........       544.740       932.575        23.747         2.518        13.708
  Continuity Error (%) .....         2.661         2.585         1.380         0.973         1.192
  
  
  *************************
  Highest Continuity Errors
  *************************
  Node HS02004842 (14.53%)
  Node YS02001884 (11.31%)
  Node JK-storage (-11.18%)
  Node YSB1171 (2.74%)
  Node HS02004817 (2.73%)
  
  
  ***************************
  Time-Step Critical Elements
  ***************************
  Link WS02006252WS02006251 (48.69%)
  Link WS02006280WS02006229 (13.88%)
  Link WS02006238WS02006235 (10.94%)
  Link YS02001793JiankangQianchi (5.57%)
  Link YS02006556YS02006558 (5.13%)
  
  
  ********************************
  Highest Flow Instability Indexes
  ********************************
  Link WS02006113WS02006111 (50)
  Link YS02163601YS02164001 (45)
  Link YS02001619YS02001622 (44)
  Link YS02163301YS02001633 (43)
  Link YS02001629YS02163301 (42)
  
  
  *************************
  Routing Time Step Summary
  *************************
  Minimum Time Step           :     0.50 sec
  Average Time Step           :     1.44 sec
  Maximum Time Step           :     5.00 sec
  Percent in Steady State     :    -0.00
  Average Iterations per Step :     4.63
  Percent Not Converging      :    24.10
  
  
  ***************************
  Subcatchment Runoff Summary
  ***************************
  
  ------------------------------------------------------------------------------------------------------------------------------
                            Total      Total      Total      Total     Imperv       Perv      Total       Total     Peak  Runoff
                           Precip      Runon       Evap      Infil     Runoff     Runoff     Runoff      Runoff   Runoff   Coeff
  Subcatchment                 mm         mm         mm         mm         mm         mm         mm    10^6 ltr      LPS
  ------------------------------------------------------------------------------------------------------------------------------
  sub0                      12.16       0.00       0.00       0.65      11.27       0.20      11.47        0.01     1.99   0.943
  sub1                      12.16       0.00       0.00       1.12      10.73       0.22      10.95        0.07    14.96   0.900
  sub2                      12.16       0.00       0.00       4.23       7.58       0.27       7.85        0.07    15.08   0.646
  sub3                      12.16       0.00       0.00       4.29       7.54       0.21       7.75        0.17    34.61   0.637
  sub4                      12.16       0.00       0.00       1.19      10.57       0.14      10.71        0.22    42.34   0.881
  sub5                      12.16       0.00       0.00       0.69      11.21       0.16      11.38        0.13    26.18   0.935
  sub7                      12.16       0.00       0.00       0.88      11.01       0.22      11.22        0.04     7.95   0.923
  sub8                      12.16       0.00       0.00       0.89      11.00       0.21      11.20        0.07    14.89   0.921
  sub9                      12.16       0.00       0.00       0.89      10.99       0.21      11.20        0.05    11.18   0.921
  sub10                     12.16       0.00       0.00       0.79      11.10       0.18      11.28        0.12    25.49   0.928
  sub11                     12.16       0.00       0.00       0.78      11.12       0.19      11.31        0.13    27.35   0.930
  sub12                     12.16       0.00       0.00       1.27      10.53       0.31      10.85        0.09    20.52   0.892
  sub14                     12.16       0.00       0.00       0.89      10.99       0.20      11.20        0.11    22.08   0.920
  sub15                     12.16       0.00       0.00       3.28       8.45       0.37       8.82        0.15    32.49   0.725
  sub16                     12.16       0.00       0.00       3.51       8.11       0.50       8.61        0.09    20.36   0.708
  sub17                     12.16       0.00       0.00       3.41       8.23       0.48       8.71        0.07    16.72   0.716
  sub22                     12.16       0.00       0.00       4.80       6.89       0.43       7.32        0.46   102.62   0.602
  sub23                     12.16       0.00       0.00       4.05       7.62       0.45       8.07        0.38    85.35   0.663
  sub60                     12.16       0.00       0.00       1.42       8.82       0.04       8.86        2.69   336.84   0.729
  sub61                     12.16       0.00       0.00       2.01       8.94       0.06       9.00        2.78   399.45   0.740
  sub62                     12.16       0.00       0.00       0.92       9.73       0.05       9.78        3.01   415.79   0.804
  sub63                     12.16       0.00       0.00       3.46       7.82       0.06       7.88        2.39   361.21   0.648
  sub64                     12.16       0.00       0.00       1.78       8.47       0.04       8.51        2.59   320.97   0.699
  sub65                     12.16       0.00       0.00       1.54       8.61       0.04       8.65        2.66   326.54   0.711
  sub66                     12.16       0.00       0.00       3.49       7.26       0.04       7.30        2.24   290.53   0.600
  sub67                     12.16       0.00       0.00       0.91      10.24       0.07      10.31        3.18   494.23   0.848
  sub68                     12.16       0.00       0.00       1.64       9.40       0.06       9.46        2.91   432.52   0.778
  sub69                     12.16       0.00       0.00       1.73       9.72       0.09       9.82        2.29   383.95   0.807
  sub70                     12.16      10.02       0.00       6.98      13.09       0.56      13.65        3.12   394.93   0.615
  sub71                     12.16       0.00       0.00       0.93       9.48       0.05       9.53        2.25   296.34   0.783
  sub72                     12.16       0.00       0.00       0.83       7.62       0.02       7.64        1.56   151.13   0.628
  1                         12.16      13.29       0.00       1.37      14.64       3.94      18.57        4.36   399.24   0.730
  2                         12.16       0.00       0.00       3.02       2.89       1.65       4.55        1.82   245.52   0.374
  
  
  ****************************
  Subcatchment Washoff Summary
  ****************************
  
  ------------------------------------------------------------------------------------------
                                 COD            SS            TN            TP         NH4-N
  Subcatchment                    kg            kg            kg            kg            kg
  ------------------------------------------------------------------------------------------
  sub0                         2.176         4.147         0.037         0.003         0.018
  sub1                         9.268        18.138         0.173         0.012         0.083
  sub2                         5.563        10.570         0.119         0.008         0.054
  sub3                        13.747        25.918         0.288         0.019         0.132
  sub4                        21.530        42.606         0.429         0.026         0.205
  sub5                        21.300        41.103         0.378         0.029         0.183
  sub7                         4.748         9.424         0.090         0.006         0.043
  sub8                         7.142        14.500         0.143         0.008         0.069
  sub9                         6.100        12.212         0.118         0.007         0.057
  sub10                       17.532        34.266         0.321         0.023         0.155
  sub11                       17.086        33.770         0.320         0.022         0.154
  sub12                       14.392        27.890         0.260         0.019         0.125
  sub14                       13.021        25.823         0.247         0.016         0.119
  sub15                       16.182        30.744         0.313         0.023         0.146
  sub16                       10.318        19.555         0.197         0.015         0.092
  sub17                        9.471        17.789         0.175         0.014         0.082
  sub22                       48.821        90.813         0.932         0.070         0.434
  sub23                       29.138        56.181         0.627         0.041         0.287
  sub60                      203.703       376.194         4.083         0.248         1.956
  sub61                      251.300       461.579         4.699         0.320         2.261
  sub62                      262.762       491.326         5.157         0.324         2.474
  sub63                      185.047       334.594         3.739         0.261         1.731
  sub64                      253.867       452.095         4.687         0.339         2.235
  sub65                      260.106       465.192         4.834         0.344         2.309
  sub66                      146.558       263.078         3.037         0.197         1.417
  sub67                      388.205       718.566         6.963         0.510         3.363
  sub68                      276.714       513.393         5.318         0.356         2.539
  sub69                      247.676       464.012         4.658         0.325         2.225
  sub70                      413.256       778.342         8.287         0.572         3.877
  sub71                      173.740       327.842         3.597         0.206         1.720
  sub72                      136.329       239.316         2.558         0.174         1.230
  1                          280.724       531.718         5.751         0.398         2.660
  2                           35.485        61.812         1.030         0.062         0.437
  ------------------------------------------------------------------------------------------
  System                    3783.006      6994.507        73.566         4.996        34.873
  
  
  ******************
  Node Depth Summary
  ******************
  
  ---------------------------------------------------------------------------------
                                 Average  Maximum  Maximum  Time of Max    Reported
                                   Depth    Depth      HGL   Occurrence   Max Depth
  Node                 Type       Meters   Meters   Meters  days hr:min      Meters
  ---------------------------------------------------------------------------------
  WS02001211           JUNCTION     0.77     0.83     5.67     0  03:08        0.83
  WS02001212           JUNCTION     0.47     0.56     5.62     0  03:08        0.56
  WS02001213           JUNCTION     0.71     0.83     5.59     0  03:07        0.83
  WS02003069           JUNCTION     0.49     0.68     5.27     0  03:07        0.68
  WS02003072           JUNCTION     0.55     0.73     5.10     0  03:07        0.73
  WS02003073           JUNCTION     0.33     0.46     4.52     0  03:08        0.46
  WS02003060           JUNCTION     0.43     0.60     5.53     0  03:06        0.60
  WS02003066           JUNCTION     0.23     0.36     5.92     0  03:05        0.36
  WS02003059           JUNCTION     0.75     0.88     5.57     0  03:07        0.88
  WS02003067           JUNCTION     0.56     0.79     6.11     0  03:04        0.79
  WS02004401           JUNCTION     0.67     1.14     7.14     0  03:02        1.13
  WS02004402           JUNCTION     0.70     1.14     7.10     0  03:03        1.13
  WS02004403           JUNCTION     0.72     1.13     7.06     0  03:02        1.12
  WS02004404           JUNCTION     0.79     1.18     7.03     0  03:01        1.17
  WS02004406           JUNCTION     0.80     1.12     6.95     0  03:01        1.11
  WS02004409           JUNCTION     0.48     0.87     6.64     0  03:04        0.87
  WS02004410           JUNCTION     0.50     0.87     6.59     0  03:04        0.87
  WS02004411           JUNCTION     0.51     0.86     6.54     0  03:04        0.86
  WS02004412           JUNCTION     0.53     0.85     6.49     0  03:04        0.85
  WS02004413           JUNCTION     0.69     0.98     6.45     0  03:04        0.98
  WS02004405           JUNCTION     0.79     1.15     7.00     0  03:02        1.15
  WS02006109           JUNCTION     0.74     1.31     7.93     0  03:02        1.29
  WS02006110           JUNCTION     0.73     1.15     7.74     0  03:02        1.15
  WS02006111           JUNCTION     0.22     0.65     7.36     0  03:03        0.65
  WS02006112           JUNCTION     0.84     1.42     7.30     0  03:02        1.41
  WS02006113           JUNCTION     0.33     0.65     7.54     0  03:02        0.65
  WS02006115           JUNCTION     0.56     1.09     7.23     0  03:02        1.09
  WS02006116           JUNCTION     0.64     1.14     7.18     0  03:03        1.14
  WS02006230           JUNCTION     0.72     1.52     8.26     0  03:02        1.51
  WS02006231           JUNCTION     0.48     1.22     8.34     0  03:01        1.21
  WS02006232           JUNCTION     0.61     1.36     8.40     0  03:02        1.35
  WS02006234           JUNCTION     0.53     1.32     8.47     0  03:02        1.31
  WS02006235           JUNCTION     0.56     1.37     8.53     0  03:02        1.36
  WS02006238           JUNCTION     0.59     1.40     8.54     0  03:02        1.39
  WS02006240           JUNCTION     0.48     1.28     8.57     0  03:02        1.27
  WS02006242           JUNCTION     0.53     1.34     8.60     0  03:02        1.33
  WS02006243           JUNCTION     0.41     1.21     8.63     0  03:02        1.20
  WS02006245           JUNCTION     0.38     1.17     8.65     0  02:59        1.16
  WS02006247           JUNCTION     0.39     1.17     8.67     0  03:01        1.16
  WS02006248           JUNCTION     0.33     1.09     8.68     0  02:58        1.09
  WS02006249           JUNCTION     0.36     1.09     8.69     0  02:56        1.09
  WS02006239           JUNCTION     0.54     1.35     8.56     0  03:02        1.34
  WS02006251           JUNCTION     0.33     1.74     9.41     0  02:56        1.17
  WS02006252           JUNCTION     0.22     1.28     9.52     0  02:56        0.72
  WS02006253           JUNCTION     0.37     2.43    10.07     0  02:56        1.20
  WS02006256           JUNCTION     1.61     2.35     9.28     0  00:00        2.35
  WS02004138           JUNCTION     0.19     0.20     7.45     0  00:00        0.19
  WS02004139           JUNCTION     0.71     0.77     5.68     0  03:08        0.77
  WS02004407           JUNCTION     0.21     0.37     6.68     0  03:03        0.37
  WS02006228           JUNCTION     0.75     1.44     8.09     0  03:02        1.44
  WS02006229           JUNCTION     0.72     1.49     8.18     0  03:02        1.48
  WS02006280           JUNCTION     0.07     0.20     8.47     0  03:02        0.20
  WS02006284           JUNCTION     0.37     0.56     8.96     0  03:02        0.56
  WS02006287           JUNCTION     0.10     0.30     9.25     0  03:01        0.30
  WSF200               JUNCTION     0.21     0.40     5.64     0  03:05        0.40
  HS02004901           JUNCTION     0.13     0.29    10.12     0  03:01        0.29
  HS02004881           JUNCTION     0.01     0.05     9.08     0  02:56        0.04
  HS02004876           JUNCTION     0.04     0.12     9.15     0  03:01        0.12
  HS02004870           JUNCTION     0.02     0.07     9.35     0  03:01        0.07
  HS02004862           JUNCTION     0.02     0.08     9.46     0  03:01        0.08
  HS02004856           JUNCTION     0.08     0.13     9.55     0  03:01        0.13
  HS02004852           JUNCTION     0.01     0.05     9.56     0  03:01        0.05
  HS02004848           JUNCTION     0.01     0.05     9.65     0  03:01        0.05
  HS02004842           JUNCTION     0.33     0.38     9.65     0  03:01        0.38
  HS02004837           JUNCTION     0.03     0.07     9.65     0  03:01        0.07
  HS02004830           JUNCTION     0.04     0.08     9.55     0  03:01        0.08
  HS02004824           JUNCTION     0.02     0.06     9.47     0  03:01        0.06
  HS02004817           JUNCTION     0.44     0.61     9.45     0  03:01        0.61
  HS02004807           JUNCTION     0.13     0.28     9.45     0  03:01        0.28
  HS02004802           JUNCTION     0.17     0.31     9.44     0  03:01        0.31
  HS02004799           JUNCTION     0.13     0.35     9.56     0  03:01        0.35
  HS02004792           JUNCTION     0.04     0.15     9.67     0  03:01        0.15
  HS02004788           JUNCTION     0.03     0.11    10.01     0  03:01        0.11
  HS02004785           JUNCTION     0.05     0.18    10.09     0  03:01        0.18
  HS02004777           JUNCTION     0.15     0.31    10.11     0  03:01        0.31
  HS02004770           JUNCTION     0.12     0.29    10.12     0  03:01        0.29
  HS02004480           JUNCTION     0.09     0.28     9.52     0  03:01        0.28
  HS02004479           JUNCTION     0.12     0.32     9.52     0  03:01        0.32
  HS02004478           JUNCTION     0.07     0.20     9.42     0  03:01        0.20
  YS02001745           JUNCTION     0.71     0.91     8.43     0  03:00        0.91
  YS02001748           JUNCTION     1.11     1.58     8.66     0  02:27        1.35
  YS02001751           JUNCTION     1.28     1.68     8.56     0  02:27        1.54
  YS02001754           JUNCTION     1.54     1.83     8.43     0  03:17        1.82
  YS02001762           JUNCTION     1.73     2.04     8.44     0  03:18        2.02
  YS02001765           JUNCTION     1.69     1.99     8.44     0  02:54        1.96
  YS02001767           JUNCTION     1.65     1.94     8.43     0  03:12        1.92
  YS02001770           JUNCTION     1.64     1.95     8.44     0  02:18        1.91
  YS02001774           JUNCTION     1.71     2.02     8.45     0  02:18        1.97
  YS02001779           JUNCTION     1.46     1.68     8.37     0  02:18        1.68
  YS02001882           JUNCTION     0.54     1.62     8.34     0  03:00        1.61
  YS02001884           JUNCTION     0.63     1.72     8.34     0  03:00        1.71
  YS02001759           JUNCTION     1.77     2.08     8.44     0  02:50        2.06
  YS02001887           JUNCTION     0.71     1.80     8.34     0  02:59        1.79
  YS02001890           JUNCTION     0.74     1.81     8.32     0  02:54        1.81
  YS02001898           JUNCTION     0.51     1.56     8.29     0  03:00        1.55
  YS02001901           JUNCTION     0.62     1.67     8.28     0  03:01        1.67
  YS02001904           JUNCTION     0.60     1.64     8.27     0  03:00        1.64
  YS02001907           JUNCTION     0.93     1.96     8.25     0  02:45        1.96
  YS02001910           JUNCTION     0.72     1.78     8.28     0  02:46        1.77
  YS02001915           JUNCTION     0.52     1.58     8.30     0  02:46        1.57
  YS02001918           JUNCTION     0.27     1.25     8.32     0  02:46        1.24
  YS02001619           JUNCTION     1.25     1.61     8.54     0  02:27        1.49
  YS02001629           JUNCTION     1.60     1.85     8.40     0  02:27        1.84
  YS02001641           JUNCTION     1.69     1.94     8.38     0  02:35        1.93
  YS02001644           JUNCTION     1.70     1.92     8.35     0  02:35        1.92
  YS02001652           JUNCTION     1.55     2.09     8.68     0  02:52        1.91
  YS02001655           JUNCTION     1.31     2.20     9.05     0  02:20        1.73
  YS02001920           JUNCTION     0.38     1.33     8.34     0  02:46        1.31
  YS02001923           JUNCTION     0.22     1.08     8.34     0  02:46        1.07
  YS02001926           JUNCTION     0.27     0.91     8.35     0  02:46        0.89
  YS02001929           JUNCTION     0.16     0.68     8.38     0  02:45        0.68
  YS02001658           JUNCTION     1.05     2.07     9.21     0  02:52        1.49
  YS02001661           JUNCTION     0.82     1.99     9.39     0  02:52        1.25
  YS02001664           JUNCTION     0.37     0.57     8.49     0  02:46        0.56
  YS02001622           JUNCTION     1.27     1.62     8.52     0  02:28        1.51
  YS02001633           JUNCTION     1.69     1.95     8.40     0  02:28        1.94
  YS02001649           JUNCTION     1.74     2.05     8.44     0  02:37        2.05
  YS02001757           JUNCTION     1.86     2.18     8.44     0  03:11        2.17
  YS02001895           JUNCTION     0.50     1.56     8.31     0  03:00        1.55
  YS02001625           JUNCTION     1.55     1.78     8.38     0  02:27        1.78
  YS02163301           JUNCTION     1.63     1.91     8.42     0  02:28        1.87
  YS02163601           JUNCTION     1.74     1.99     8.39     0  02:35        1.98
  YS02164001           JUNCTION     1.68     1.92     8.38     0  02:35        1.91
  YS02001647           JUNCTION     1.53     1.81     8.42     0  02:37        1.79
  YSB1154              JUNCTION     0.26     0.47     9.52     0  03:01        0.47
  YSB6556              JUNCTION     0.16     0.35     9.52     0  03:01        0.35
  YSB1174              JUNCTION     0.21     0.41     9.52     0  03:01        0.41
  YSB1171              JUNCTION     0.41     0.62     9.52     0  03:01        0.62
  YS02006553           JUNCTION     0.93     1.96     8.25     0  02:55        1.96
  YS02006561           JUNCTION     0.30     1.08     7.74     0  02:48        1.07
  YS02006556           JUNCTION     0.90     1.92     8.23     0  02:59        1.92
  YS02006558           JUNCTION     0.94     1.96     8.23     0  03:00        1.96
  YS02001783           JUNCTION     0.51     1.47     7.61     0  02:47        1.47
  YS02001784           JUNCTION     0.53     1.60     7.66     0  02:34        1.40
  YS02001786           JUNCTION     0.47     1.59     7.62     0  02:34        1.25
  YS02001788           JUNCTION     0.41     1.52     7.50     0  02:34        1.12
  YS02001790           JUNCTION     0.52     1.96     7.60     0  06:10        1.29
  YS02001791           JUNCTION     0.48     2.24     7.71     0  02:32        1.36
  YS02001793           JUNCTION     0.66     2.28     7.12     0  01:57        1.80
  WSC                  OUTFALL      0.33     0.46     1.13     0  03:08        0.46
  JK-storage           STORAGE      2.65     5.80     6.60     0  02:01        5.80
  CC-storage           STORAGE      1.13     1.40     8.40     0  03:23        1.40
  XR-storage           STORAGE      6.21     7.72     5.72     0  03:01        7.72
  
  
  *******************
  Node Inflow Summary
  *******************
  
  -------------------------------------------------------------------------------------------------
                                  Maximum  Maximum                  Lateral       Total        Flow
                                  Lateral    Total  Time of Max      Inflow      Inflow     Balance
                                   Inflow   Inflow   Occurrence      Volume      Volume       Error
  Node                 Type           LPS      LPS  days hr:min    10^6 ltr    10^6 ltr     Percent
  -------------------------------------------------------------------------------------------------
  WS02001211           JUNCTION      7.35   390.26     0  03:22       0.207        10.3       0.390
  WS02001212           JUNCTION      0.00   393.05     0  03:22           0        10.2       0.233
  WS02001213           JUNCTION      0.00   395.70     0  03:21           0        10.2       0.274
  WS02003069           JUNCTION      0.32  1224.40     0  03:06     0.00902        18.5       0.174
  WS02003072           JUNCTION      0.00  1224.32     0  03:07           0        18.5       0.213
  WS02003073           JUNCTION      1.82  1226.26     0  03:07      0.0514        18.5       0.244
  WS02003060           JUNCTION     16.53  1223.91     0  03:06       0.466        18.5       0.164
  WS02003066           JUNCTION      0.00   830.01     0  03:05           0        7.93       0.050
  WS02003059           JUNCTION      0.00   399.29     0  03:21           0        10.2       0.385
  WS02003067           JUNCTION      0.00   829.87     0  03:04           0        7.94       0.105
  WS02004401           JUNCTION      0.00   831.30     0  03:02           0        8.14       0.214
  WS02004402           JUNCTION      0.00   831.69     0  03:03           0        8.12       0.206
  WS02004403           JUNCTION      0.00   831.65     0  03:03           0         8.1       0.193
  WS02004404           JUNCTION      0.16   831.76     0  03:03     0.00457        8.09       0.148
  WS02004406           JUNCTION      0.00   831.29     0  03:03           0        8.06       0.367
  WS02004409           JUNCTION      0.00   830.92     0  03:03           0        8.03       0.160
  WS02004410           JUNCTION      0.00   830.31     0  03:03           0        8.02       0.189
  WS02004411           JUNCTION      0.00   830.00     0  03:04           0           8       0.200
  WS02004412           JUNCTION      0.00   829.87     0  03:04           0        7.99       0.223
  WS02004413           JUNCTION      0.00   829.85     0  03:04           0        7.97       0.339
  WS02004405           JUNCTION      0.04   832.36     0  03:03     0.00107        8.08       0.224
  WS02006109           JUNCTION      1.23   818.27     0  03:02      0.0347        8.15       0.151
  WS02006110           JUNCTION      0.00   818.18     0  03:02           0        8.14       0.157
  WS02006111           JUNCTION      0.00   817.74     0  03:02           0        8.12       0.027
  WS02006112           JUNCTION     16.72   830.90     0  03:02      0.0747        8.19       0.321
  WS02006113           JUNCTION      0.00   818.15     0  03:02           0        8.13       0.067
  WS02006115           JUNCTION      0.00   830.90     0  03:03           0        8.17       0.184
  WS02006116           JUNCTION      0.00   831.21     0  03:03           0        8.15       0.159
  WS02006230           JUNCTION     10.28   537.22     0  06:24        0.29        5.98       0.176
  WS02006231           JUNCTION      0.00   526.60     0  06:24           0        5.69       0.018
  WS02006232           JUNCTION      0.00   526.62     0  06:24           0         5.7       0.167
  WS02006234           JUNCTION      0.00   525.59     0  06:24           0         5.7      -0.019
  WS02006235           JUNCTION      0.00   524.45     0  06:25           0        5.78       0.135
  WS02006238           JUNCTION      0.00   329.63     0  06:25           0        2.51      -0.071
  WS02006240           JUNCTION      0.00   344.17     0  06:21           0        2.44       0.116
  WS02006242           JUNCTION      0.00   359.68     0  06:21           0        2.41       0.163
  WS02006243           JUNCTION      0.00   371.55     0  06:21           0        2.39      -0.206
  WS02006245           JUNCTION      0.00   378.24     0  06:21           0        2.38       0.286
  WS02006247           JUNCTION      0.00   383.45     0  06:21           0        2.38       0.043
  WS02006248           JUNCTION      0.00   388.60     0  06:21           0        2.38      -0.095
  WS02006249           JUNCTION      0.00   487.18     0  03:00           0        2.58       0.139
  WS02006239           JUNCTION      0.00   330.18     0  06:25           0        2.47      -0.283
  WS02006251           JUNCTION      0.08   485.44     0  03:00     0.00217        2.63      -0.023
  WS02006252           JUNCTION      0.00   400.00     0  06:20           0        2.16       0.007
  WS02006253           JUNCTION      1.99   138.73     0  02:55     0.00928       0.463      -0.038
  WS02006256           JUNCTION      0.00   983.00     0  02:10           0        9.46      -0.005
  WS02004138           JUNCTION      0.00   380.00     0  00:00           0        10.1       0.063
  WS02004139           JUNCTION      0.32   395.85     0  00:00     0.00905        10.1       0.448
  WS02004407           JUNCTION      0.00   831.14     0  03:03           0        8.03       0.067
  WS02006228           JUNCTION      0.00   817.09     0  03:02           0        8.13       0.128
  WS02006229           JUNCTION      0.00   817.07     0  03:02           0        8.14       0.144
  WS02006280           JUNCTION      0.00   413.63     0  03:02           0        2.17       0.007
  WS02006284           JUNCTION      0.10   413.58     0  03:02      0.0027        2.17       0.042
  WS02006287           JUNCTION      0.00   413.23     0  03:01           0        2.17       0.033
  WSF200               JUNCTION      0.00   830.07     0  03:05           0        7.93       0.044
  HS02004901           JUNCTION     20.36    20.36     0  03:01      0.0902      0.0904       1.990
  HS02004881           JUNCTION      7.95    84.19     0  03:01      0.0378        0.41       0.070
  HS02004876           JUNCTION     14.96    76.75     0  03:01      0.0728       0.373       0.148
  HS02004870           JUNCTION     14.89    62.14     0  03:01      0.0716         0.3       0.037
  HS02004862           JUNCTION     15.28    47.68     0  03:01      0.0788       0.229       0.076
  HS02004856           JUNCTION     11.18    32.72     0  03:01      0.0539       0.152       0.960
  HS02004852           JUNCTION      0.00    21.94     0  03:01           0      0.0979       0.059
  HS02004848           JUNCTION     34.61    34.61     0  03:01       0.174       0.174       0.028
  HS02004842           JUNCTION      0.00    12.41     0  03:01           0      0.0895      16.997
  HS02004837           JUNCTION     31.84    43.95     0  03:01       0.303        0.38       0.214
  HS02004830           JUNCTION      0.15    43.86     0  03:01     0.00423        0.37       0.335
  HS02004824           JUNCTION     42.39    85.90     0  03:01       0.225       0.594       0.091
  HS02004817           JUNCTION      0.60    86.28     0  03:01      0.0169        0.61       2.809
  HS02004807           JUNCTION     27.35   112.30     0  03:01       0.131       0.726       0.605
  HS02004802           JUNCTION      0.00   111.37     0  03:01           0       0.723       0.548
  HS02004799           JUNCTION     22.08   258.93     0  03:01       0.107        1.24       0.223
  HS02004792           JUNCTION    102.90   237.98     0  03:01        0.47        1.14       0.036
  HS02004788           JUNCTION     34.16   135.93     0  03:01       0.199       0.669       0.059
  HS02004785           JUNCTION      0.15   103.52     0  03:01     0.00423       0.471       0.106
  HS02004777           JUNCTION      0.03   104.16     0  03:01    0.000846       0.472       1.115
  HS02004770           JUNCTION     85.35   105.11     0  03:01       0.385       0.473       0.659
  HS02004480           JUNCTION      0.00   302.45     0  03:01           0        1.46       0.076
  HS02004479           JUNCTION      0.00    44.91     0  03:02           0       0.232       0.317
  HS02004478           JUNCTION      0.00   413.09     0  03:01           0        2.17       0.014
  YS02001745           JUNCTION    336.84   396.08     0  02:27        2.69         2.7       0.424
  YS02001748           JUNCTION      0.04   565.52     0  02:27     0.00127        2.69       0.811
  YS02001751           JUNCTION      0.01   359.37     0  02:17     0.00031        2.65       0.906
  YS02001754           JUNCTION      0.26   344.12     0  03:01     0.00733        2.64       0.952
  YS02001762           JUNCTION      0.00   291.36     0  02:39           0        1.89       1.141
  YS02001765           JUNCTION      0.00   291.28     0  02:39           0        1.89       1.312
  YS02001767           JUNCTION      0.54   291.36     0  02:38      0.0151        1.92       1.890
  YS02001770           JUNCTION    415.94   536.05     0  03:01        3.01        3.61       0.884
  YS02001774           JUNCTION      0.00   535.56     0  03:01           0        2.26       1.126
  YS02001779           JUNCTION      0.01   536.92     0  03:01    0.000141        2.23       0.696
  YS02001882           JUNCTION      0.00    33.53     0  02:35           0      0.0178      14.632
  YS02001884           JUNCTION      0.00    65.77     0  02:35           0      0.0549      12.749
  YS02001759           JUNCTION    399.49   574.79     0  02:39        2.78        4.05       0.573
  YS02001887           JUNCTION    494.68   494.68     0  03:01        3.19        3.22       0.266
  YS02001890           JUNCTION      0.00   495.32     0  03:01           0        3.18       0.293
  YS02001898           JUNCTION      0.00   494.75     0  03:01           0        3.16       0.101
  YS02001901           JUNCTION      0.00   495.72     0  03:01           0        3.16       0.221
  YS02001904           JUNCTION      0.00   495.38     0  03:01           0        3.16       0.202
  YS02001907           JUNCTION      0.00   943.33     0  03:01           0        7.02       0.348
  YS02001910           JUNCTION      0.00   449.60     0  03:00           0        3.87       0.309
  YS02001915           JUNCTION    296.36   448.83     0  03:00        2.25         3.9       0.159
  YS02001918           JUNCTION      0.00   210.32     0  03:30           0        1.65       0.115
  YS02001619           JUNCTION    290.53   290.53     0  03:01        2.24        2.24       0.550
  YS02001629           JUNCTION      0.00   218.76     0  02:17           0        1.69       1.732
  YS02001641           JUNCTION      0.00   398.86     0  02:34           0        4.25       0.500
  YS02001644           JUNCTION    321.01  1316.12     0  03:01        2.59        10.7       0.248
  YS02001652           JUNCTION      0.00   381.71     0  03:01           0        2.35       1.019
  YS02001655           JUNCTION      0.15   398.66     0  02:18     0.00434        2.38       1.028
  YS02001920           JUNCTION      2.87   202.91     0  02:46      0.0809        1.64       0.183
  YS02001923           JUNCTION      0.04   223.73     0  02:46     0.00106        1.56       0.052
  YS02001926           JUNCTION      0.05   171.58     0  02:46     0.00147        1.56       0.210
  YS02001929           JUNCTION    151.13   151.13     0  03:01        1.56        1.56       0.037
  YS02001658           JUNCTION      0.00   593.41     0  02:23           0        2.42       0.908
  YS02001661           JUNCTION      0.00   642.34     0  02:39           0        2.68      -0.601
  YS02001664           JUNCTION    361.21   361.21     0  03:01        2.38        2.67       0.250
  YS02001622           JUNCTION      0.00   291.03     0  03:01           0        2.22       1.453
  YS02001633           JUNCTION    326.74   397.30     0  02:34        2.66        4.31       0.750
  YS02001649           JUNCTION      0.00   826.55     0  02:35           0        6.39       0.589
  YS02001757           JUNCTION      0.00  1577.88     0  02:35           0        8.67       1.077
  YS02001895           JUNCTION      0.00   495.06     0  03:01           0        3.17       0.164
  YS02001625           JUNCTION      0.00   290.61     0  03:00           0        2.19       1.811
  YS02163301           JUNCTION      0.00   218.29     0  02:22           0        1.67       1.480
  YS02163601           JUNCTION      0.11   398.36     0  02:34      0.0031        4.27       0.706
  YS02164001           JUNCTION      0.00   398.92     0  02:34           0        4.25       0.479
  YS02001647           JUNCTION      0.00   612.45     0  03:01           0        5.61       0.504
  YSB1154              JUNCTION     26.18    26.18     0  03:01       0.129        0.13       1.130
  YSB6556              JUNCTION      0.00    25.82     0  03:01           0        0.13       0.969
  YSB1174              JUNCTION     20.52    20.52     0  03:01      0.0948      0.0953       1.368
  YSB1171              JUNCTION      0.00    45.30     0  03:01           0       0.231       2.820
  YS02006553           JUNCTION      0.00   703.52     0  03:31           0        6.56       0.238
  YS02006561           JUNCTION      0.00   982.70     0  03:00           0        9.44       0.007
  YS02006556           JUNCTION      0.00   703.57     0  03:31           0        6.57       0.169
  YS02006558           JUNCTION    433.40   983.74     0  03:00        2.93        9.47       0.057
  YS02001783           JUNCTION      0.00   982.50     0  03:00           0        9.44       0.023
  YS02001784           JUNCTION      1.06   983.74     0  03:00      0.0299        9.47       0.037
  YS02001786           JUNCTION      0.06   983.61     0  03:00     0.00159        9.47       0.036
  YS02001788           JUNCTION      0.07   983.57     0  03:00       0.002        9.47       0.026
  YS02001790           JUNCTION      0.15   983.98     0  03:00     0.00437        9.47       0.016
  YS02001791           JUNCTION      0.00   983.71     0  03:00           0        9.47       0.014
  YS02001793           JUNCTION      0.00   984.64     0  03:00           0        9.47      -0.020
  WSC                  OUTFALL       0.00  1226.42     0  03:08           0        18.4       0.000
  JK-storage           STORAGE       0.00   984.66     0  03:00           0        9.62     -10.055
  CC-storage           STORAGE       0.00  1577.79     0  02:35           0         6.2       1.063
  XR-storage           STORAGE     844.76   844.76     0  03:01        11.8        12.4      -0.004
  
  
  **********************
  Node Surcharge Summary
  **********************
  
  Surcharging occurs when water rises above the top of the highest conduit.
  ---------------------------------------------------------------------
                                               Max. Height   Min. Depth
                                   Hours       Above Crown    Below Rim
  Node                 Type      Surcharged         Meters       Meters
  ---------------------------------------------------------------------
  WS02004401           JUNCTION        0.29          0.137        1.523
  WS02004402           JUNCTION        0.30          0.136        1.604
  WS02004403           JUNCTION        0.31          0.126        1.904
  WS02004404           JUNCTION        0.46          0.180        2.600
  WS02004406           JUNCTION        0.39          0.116        2.334
  WS02004405           JUNCTION        0.43          0.155        2.645
  WS02006109           JUNCTION        2.29          0.492        1.328
  WS02006110           JUNCTION        1.26          0.242        1.608
  WS02006112           JUNCTION        1.55          0.418        1.262
  WS02006115           JUNCTION        0.19          0.079        2.171
  WS02006116           JUNCTION        0.22          0.084        2.206
  WS02006230           JUNCTION        0.82          0.439        1.131
  WS02006231           JUNCTION        1.01          0.507        1.023
  WS02006232           JUNCTION        2.01          0.664        0.816
  WS02006234           JUNCTION        1.25          0.597        0.643
  WS02006235           JUNCTION        1.45          0.657        0.633
  WS02006238           JUNCTION        1.51          0.675        0.755
  WS02006240           JUNCTION        1.12          0.571        0.819
  WS02006242           JUNCTION        1.15          0.606        0.214
  WS02006243           JUNCTION        0.97          0.499        0.271
  WS02006245           JUNCTION        0.91          0.457        0.393
  WS02006247           JUNCTION        0.90          0.460        0.300
  WS02006248           JUNCTION        0.83          0.372        0.008
  WS02006249           JUNCTION        0.84          0.390        0.000
  WS02006239           JUNCTION        1.20          0.608        0.682
  WS02006251           JUNCTION        0.58          0.714        0.466
  WS02006252           JUNCTION        1.10          0.881        0.219
  WS02006253           JUNCTION        0.59          1.388        1.092
  WS02006256           JUNCTION        6.88          2.050        0.000
  WS02006228           JUNCTION        2.24          0.612        1.588
  YS02001748           JUNCTION        5.31          0.499        0.691
  YS02001751           JUNCTION        5.48          0.681        0.519
  YS02001754           JUNCTION        5.69          0.776        0.374
  YS02001762           JUNCTION        5.87          1.037        0.113
  YS02001765           JUNCTION        5.84          0.986        0.114
  YS02001767           JUNCTION        5.81          0.939        0.091
  YS02001770           JUNCTION        5.80          0.920        0.000
  YS02001774           JUNCTION        5.86          1.023        0.027
  YS02001779           JUNCTION        5.67          0.680        0.000
  YS02001882           JUNCTION        0.91          0.622        0.208
  YS02001884           JUNCTION        0.93          0.661        0.209
  YS02001759           JUNCTION        5.89          1.077        0.133
  YS02001887           JUNCTION        1.00          0.748        0.202
  YS02001890           JUNCTION        1.02          0.760        0.000
  YS02001898           JUNCTION        0.87          0.528        0.212
  YS02001901           JUNCTION        0.97          0.673        0.197
  YS02001904           JUNCTION        0.94          0.637        0.213
  YS02001907           JUNCTION        1.77          0.950        0.000
  YS02001910           JUNCTION        1.07          0.776        0.324
  YS02001915           JUNCTION        0.89          0.583        0.417
  YS02001918           JUNCTION        0.71          0.253        0.557
  YS02001619           JUNCTION        5.47          0.610        0.000
  YS02001629           JUNCTION        5.47          0.470        0.000
  YS02001641           JUNCTION        5.85          0.940        0.160
  YS02001644           JUNCTION        5.85          0.920        0.000
  YS02001652           JUNCTION        5.73          1.058        0.072
  YS02001655           JUNCTION        5.50          1.200        0.000
  YS02001920           JUNCTION        0.74          0.328        0.812
  YS02001658           JUNCTION        5.34          1.070        0.230
  YS02001661           JUNCTION        0.17          0.918        0.472
  YS02001622           JUNCTION        5.50          0.620        0.000
  YS02001633           JUNCTION        5.83          0.927        0.133
  YS02001649           JUNCTION        5.87          1.050        0.000
  YS02001757           JUNCTION        5.98          1.178        0.032
  YS02001895           JUNCTION        0.88          0.563        0.187
  YS02001625           JUNCTION        5.76          0.780        0.000
  YS02163301           JUNCTION        5.81          0.908        0.122
  YS02163601           JUNCTION        5.87          0.991        0.089
  YS02164001           JUNCTION        5.84          0.921        0.179
  YS02001647           JUNCTION        5.75          0.810        0.090
  YS02006553           JUNCTION        1.88          0.964        0.226
  YS02006561           JUNCTION        0.77          0.278        0.872
  YS02006556           JUNCTION        1.30          0.882        0.468
  YS02006558           JUNCTION        1.26          0.861        0.539
  YS02001783           JUNCTION        1.06          0.670        0.930
  YS02001784           JUNCTION        1.04          0.796        0.694
  YS02001786           JUNCTION        0.98          0.788        0.642
  YS02001788           JUNCTION        0.93          0.720        0.760
  YS02001790           JUNCTION        1.79          1.157        0.000
  YS02001791           JUNCTION        1.90          1.436        0.484
  YS02001793           JUNCTION        2.21          1.284        1.316
  
  
  *********************
  Node Flooding Summary
  *********************
  
  Flooding refers to all water that overflows a node, whether it ponds or not.
  --------------------------------------------------------------------------
                                                             Total   Maximum
                                 Maximum   Time of Max       Flood    Ponded
                        Hours       Rate    Occurrence      Volume     Depth
  Node                 Flooded       LPS   days hr:min    10^6 ltr    Meters
  --------------------------------------------------------------------------
  WS02006249              0.55    261.68      0  03:00       0.203     0.000
  WS02006256              3.82    810.32      0  03:02       6.129     0.000
  YS02001770              0.01      6.28      0  02:18       0.000     0.000
  YS02001779              2.95    536.60      0  03:01       2.212     0.000
  YS02001890              0.01      1.41      0  03:00       0.000     0.000
  YS02001907              0.57    393.63      0  03:01       0.443     0.000
  YS02001619              0.01     14.40      0  02:27       0.000     0.000
  YS02001629              0.01     17.87      0  02:28       0.000     0.000
  YS02001644              4.35   1316.05      0  03:01       8.931     0.000
  YS02001655              0.01    203.01      0  02:20       0.000     0.000
  YS02001622              0.01      6.27      0  02:28       0.000     0.000
  YS02001649              0.02     31.22      0  03:18       0.001     0.000
  YS02001625              1.20    235.40      0  03:01       0.465     0.000
  YS02001790              0.01     76.31      0  06:10       0.000     0.000
  JK-storage              0.83    818.81      0  02:39       1.069     0.000
  XR-storage              2.95    458.20      0  03:01       1.705     0.000
  
  
  **********************
  Storage Volume Summary
  **********************
  
  --------------------------------------------------------------------------------------------------
                         Average     Avg  Evap Exfil       Maximum     Max    Time of Max    Maximum
                          Volume    Pcnt  Pcnt  Pcnt        Volume    Pcnt     Occurrence    Outflow
  Storage Unit           1000 m3    Full  Loss  Loss       1000 m3    Full    days hr:min        LPS
  --------------------------------------------------------------------------------------------------
  JK-storage               0.133      46     0     0         0.291     100       0  02:01     983.00
  CC-storage               3.138      20     0     0         3.915      25       0  03:23     400.00
  XR-storage               0.745      80     0     0         0.926     100       0  03:01     380.00
  
  
  ***********************
  Outfall Loading Summary
  ***********************
  
  ---------------------------------------------------------------------------------------------------------------------------------
                         Flow       Avg       Max       Total         Total         Total         Total         Total         Total
                         Freq      Flow      Flow      Volume           COD            SS            TN            TP         NH4-N
  Outfall Node           Pcnt       LPS       LPS    10^6 ltr            kg            kg            kg            kg            kg
  ---------------------------------------------------------------------------------------------------------------------------------
  WSC                   99.98    711.00   1226.42      18.429      2218.780      3778.247       150.167        17.843        91.322
  ---------------------------------------------------------------------------------------------------------------------------------
  System                99.98    711.00   1226.42      18.429      2218.780      3778.247       150.167        17.843        91.322
  
  
  ********************
  Link Flow Summary
  ********************
  
  -----------------------------------------------------------------------------
                                 Maximum  Time of Max   Maximum    Max/    Max/
                                  |Flow|   Occurrence   |Veloc|    Full    Full
  Link                 Type          LPS  days hr:min     m/sec    Flow   Depth
  -----------------------------------------------------------------------------
  WS02003066WSF200     CONDUIT    830.07     0  03:05      2.94    0.14    0.30
  WS02006287WS02006284 CONDUIT    413.48     0  03:02      2.04    0.19    0.30
  WS02006284WS02006280 CONDUIT    413.63     0  03:02      2.28    0.17    0.28
  WS02006280WS02006229 CONDUIT    413.63     0  03:02      3.60    0.09    0.25
  WS02006229WS02006228 CONDUIT    817.09     0  03:02      1.63    2.71    1.00
  WS02006256WS02006235 CONDUIT    288.92     0  00:00      4.23    3.06    1.00
  WS02006253WS02006251 CONDUIT    119.69     0  06:23      0.60    0.36    1.00
  WS02006252WS02006251 CONDUIT    401.43     0  06:23      3.19    1.47    1.00
  WS02006251WS02006249 CONDUIT    487.18     0  03:00      1.27    1.40    1.00
  WS02006249WS02006248 CONDUIT    388.60     0  06:21      1.19    2.13    1.00
  WS02006248WS02006247 CONDUIT    383.45     0  06:21      1.16    0.83    1.00
  WS02006247WS02006245 CONDUIT    378.24     0  06:21      1.13    3.00    1.00
  WS02006245WS02006243 CONDUIT    371.55     0  06:21      1.17    1.10    1.00
  WS02006243WS02006242 CONDUIT    359.68     0  06:21      1.06    0.77    1.00
  WS02006242WS02006240 CONDUIT    344.17     0  06:21      1.00    1.37    1.00
  WS02006240WS02006239 CONDUIT    330.18     0  06:25      1.03    1.04    1.00
  WS02006239WS02006238 CONDUIT    329.63     0  06:25      0.94    1.05    1.00
  WS02006238WS02006235 CONDUIT    329.27     0  06:25      1.45    0.74    1.00
  WS02006235WS02006234 CONDUIT    525.59     0  06:24      1.37    5.55    1.00
  WS02006234WS02006232 CONDUIT    526.62     0  06:24      1.39    1.07    1.00
  WS02006232WS02006231 CONDUIT    526.60     0  06:24      1.37    1.10    1.00
  WS02006231WS02006230 CONDUIT    526.94     0  06:24      1.43    7.99    1.00
  WS02006230WS02006229 CONDUIT    533.60     0  05:30      1.39   11.87    1.00
  WS02006228WS02006109 CONDUIT    817.04     0  03:02      1.63    3.57    1.00
  WS02006116WS02004401 CONDUIT    831.30     0  03:02      1.06    1.15    1.00
  WS02006115WS02006116 CONDUIT    831.21     0  03:03      1.06    1.07    1.00
  WS02006113WS02006111 CONDUIT    817.74     0  03:02      2.58    0.98    0.81
  WS02006112WS02006115 CONDUIT    830.90     0  03:03      1.06    0.49    1.00
  WS02006111WS02006112 CONDUIT    818.32     0  03:03      1.75    0.39    0.90
  WS02006110WS02006113 CONDUIT    818.15     0  03:02      1.76    0.74    0.90
  WS02006109WS02006110 CONDUIT    818.18     0  03:02      1.63    1.57    1.00
  WS02004411WS02004412 CONDUIT    829.87     0  03:04      1.16    1.18    0.85
  WS02004401WS02004402 CONDUIT    831.69     0  03:03      1.06    1.00    1.00
  WS02004413WS02003067 CONDUIT    829.87     0  03:04      1.42    0.36    0.70
  WS02004412WS02004413 CONDUIT    829.85     0  03:04      1.10    0.56    0.91
  WS02004410WS02004411 CONDUIT    830.00     0  03:04      1.15    1.13    0.86
  WS02004409WS02004410 CONDUIT    830.31     0  03:03      1.15    1.07    0.87
  WS02004407WS02004409 CONDUIT    830.92     0  03:03      1.65    0.29    0.62
  WS02004406WS02004407 CONDUIT    831.14     0  03:03      1.45    0.37    0.69
  WS02004405WS02004406 CONDUIT    831.29     0  03:03      1.10    1.64    1.00
  WS02004404WS02004405 CONDUIT    832.32     0  03:03      1.15    8.15    1.00
  WS02004403WS02004404 CONDUIT    831.60     0  03:03      1.06    0.60    1.00
  WS02004402WS02004403 CONDUIT    831.65     0  03:03      1.06    1.19    1.00
  WS02004139WS02001211 CONDUIT    382.91     0  03:22      0.90    0.48    0.63
  WS02004138WS02004139 CONDUIT    395.52     0  00:00      3.64    0.08    0.46
  WS02003067WS02003066 CONDUIT    830.01     0  03:05      1.54    0.27    0.48
  WS02001213WS02003059 CONDUIT    399.29     0  03:21      0.89    0.66    0.84
  WS02001212WS02001213 CONDUIT    395.70     0  03:21      1.32    0.61    0.53
  WS02001211WS02001212 CONDUIT    393.05     0  03:22      0.78    0.30    0.69
  WS02003072WS02003073 CONDUIT   1224.44     0  03:07      1.90    2.64    0.55
  WS02003069WS02003072 CONDUIT   1224.32     0  03:07      1.77    0.59    0.59
  WS02003060WS02003069 CONDUIT   1224.08     0  03:06      1.99    0.48    0.54
  WS02003059WS02003060 CONDUIT    403.85     0  03:20      0.95    0.26    0.74
  HS02004901HS02004770 CONDUIT     20.52     0  03:01      0.07    0.08    0.42
  HS02004876HS02004881 CONDUIT     76.55     0  03:01      0.95    0.81    0.12
  HS02004870HS02004876 CONDUIT     61.90     0  03:01      0.65    0.04    0.14
  HS02004842HS02004848 CONDUIT     12.41     0  03:01      0.06    0.01    0.31
  HS02004837HS02004842 CONDUIT     12.98     0  03:02      0.42    0.01    0.32
  HS02004830HS02004837 CONDUIT     43.71     0  03:01      0.57    0.04    0.11
  HS02004824HS02004830 CONDUIT     43.67     0  03:01      0.59    0.06    0.11
  HS02004817HS02004824 CONDUIT     85.68     0  03:01      0.26    0.04    0.48
  HS02004770HS02004777 CONDUIT    104.13     0  03:01      0.35    0.19    0.43
  HS02004799HS02004480 CONDUIT    258.30     0  03:01      0.83    0.33    0.44
  HS02004792HS02004799 CONDUIT    237.05     0  03:01      0.95    0.15    0.36
  HS02004788HS02004792 CONDUIT    135.43     0  03:01      1.06    0.09    0.18
  HS02004785HS02004788 CONDUIT    103.22     0  03:02      0.71    0.78    0.21
  HS02004777HS02004785 CONDUIT    103.37     0  03:01      0.42    0.13    0.35
  HS02004480HS02004478 CONDUIT    302.30     0  03:01      1.26    1.27    0.34
  HS02004479HS02004480 CONDUIT     46.29     0  03:02      0.32    0.04    0.43
  HS02004862HS02004870 CONDUIT     47.43     0  03:01      0.66    0.05    0.10
  HS02004848HS02004852 CONDUIT     21.94     0  03:01      0.45    0.02    0.07
  HS02004856HS02004862 CONDUIT     32.47     0  03:01      0.48    0.03    0.10
  HS02004852HS02004856 CONDUIT     21.85     0  03:02      0.25    0.02    0.13
  HS02004802HS02004478 CONDUIT    111.52     0  03:02      0.45    0.10    0.36
  HS02004478WS02006287 CONDUIT    413.23     0  03:01      1.75    0.12    0.26
  HS02004817HS02004807 CONDUIT     86.14     0  03:01      0.19    0.05    0.63
  HS02004807HS02004802 CONDUIT    111.37     0  03:01      0.38    0.21    0.42
  YS02001759YS02001757 CONDUIT    574.86     0  02:39      0.73    0.41    1.00
  YS02001762YS02001759 CONDUIT    291.64     0  02:39      0.37    0.34    1.00
  YS02001765YS02001762 CONDUIT    291.36     0  02:39      0.37    0.27    1.00
  YS02001770YS02001767 CONDUIT    290.83     0  02:38      0.37    1.15    1.00
  YS02001774YS02001770 CONDUIT    535.56     0  03:01      0.68    0.34    1.00
  YS02001779YS02001774 CONDUIT    536.92     0  03:01      0.68    0.27    1.00
  YS02001649YS02001757 CONDUIT    826.18     0  02:35      1.05    0.50    1.00
  YS02001767YS02001765 CONDUIT    291.28     0  02:39      0.37    0.37    1.00
  YS02006561YS02001783 CONDUIT    982.50     0  03:00      2.15    0.51    1.00
  YS02001783YS02001784 CONDUIT    982.68     0  03:00      1.95    1.35    1.00
  YS02001784YS02001785 CONDUIT    983.55     0  03:00      1.96    2.29    1.00
  YS02001788YS02001790 CONDUIT    983.83     0  03:00      2.44    0.73    1.00
  YS02001790YS02001791 CONDUIT    983.71     0  03:00      2.90    1.07    1.00
  YS02001791YS02001793 CONDUIT    984.64     0  03:00      5.76    0.42    1.00
  YS02001910YS02001907 CONDUIT    449.48     0  03:00      0.57    0.25    1.00
  YS02001786YS02001788 CONDUIT    983.50     0  03:00      2.31    1.89    1.00
  YS02001915YS02001910 CONDUIT    449.60     0  03:00      0.59    0.22    1.00
  YS02001918YS02001915 CONDUIT    247.33     0  03:31      0.44    0.14    1.00
  YS02001923YS02001920 CONDUIT    200.04     0  02:46      0.72    0.09    1.00
  YS02001926YS02001923 CONDUIT    223.69     0  02:46      0.83    0.32    0.88
  YS02001929YS02001926 CONDUIT    171.53     0  02:46      0.89    0.08    0.78
  YS02001920YS02001918 CONDUIT    210.32     0  03:30      0.69    0.20    1.00
  YS02001629YS02163301 CONDUIT    218.29     0  02:22      0.28    0.27    1.00
  YS02001619YS02001622 CONDUIT    291.03     0  03:01      0.61    0.43    1.00
  YS02001622YS02001625 CONDUIT    290.61     0  03:00      0.37    0.16    1.00
  YS02001625YS02001629 CONDUIT    218.76     0  02:17      0.28    0.10    1.00
  YS02163301YS02001633 CONDUIT    218.01     0  02:22      0.28    0.20    1.00
  YS02163601YS02164001 CONDUIT    398.92     0  02:34      0.51    0.35    1.00
  YS02164001YS02001641 CONDUIT    398.86     0  02:34      0.51    0.54    1.00
  YS02001641YS02001644 CONDUIT    399.56     0  02:29      0.51    1.29    1.00
  YS02001647YS02001649 CONDUIT    612.45     0  03:01      0.78    0.32    1.00
  YS02006553YS02006556 CONDUIT    703.57     0  03:31      0.90    0.60    1.00
  YS02006556YS02006558 CONDUIT    704.03     0  03:31      0.90    0.56    1.00
  YSB6556YSB1171       CONDUIT     25.76     0  03:03      0.09    0.03    0.70
  YS02001907YS02006553 CONDUIT    703.52     0  03:31      0.78    0.83    1.00
  YS02006558YS02006561 CONDUIT    982.70     0  03:00      3.48    2.17    1.00
  YS02001633YS02163601 CONDUIT    398.25     0  02:34      0.51    0.42    1.00
  YS02001644YS02001647 CONDUIT    613.16     0  03:01      0.78    0.36    1.00
  YS02001745YS02001748 CONDUIT    565.48     0  02:27      1.47    0.22    0.96
  YS02001748YS02001751 CONDUIT    359.36     0  02:17      1.06    0.18    1.00
  YS02001751YS02001754 CONDUIT    343.86     0  03:01      0.92    0.17    1.00
  YS02001754YS02001757 CONDUIT    343.54     0  03:01      0.44    0.14    1.00
  YS02001882YS02001884 CONDUIT     33.53     0  02:35      0.13    0.04    1.00
  YS02001884YS02001887 CONDUIT     65.77     0  02:35      0.09    0.09    1.00
  YS02001890YS02001895 CONDUIT    495.06     0  03:01      0.63    0.23    1.00
  YS02001895YS02001898 CONDUIT    494.75     0  03:01      0.63    0.86    1.00
  YS02001898YS02001901 CONDUIT    495.72     0  03:01      0.63    0.32    1.00
  YS02001901YS02001904 CONDUIT    495.38     0  03:01      0.63    0.77    1.00
  YS02001904YS02001907 CONDUIT    495.47     0  03:00      0.63    0.17    1.00
  YS02001887YS02001890 CONDUIT    495.32     0  03:01      0.63    0.85    1.00
  YS02001652YS02001649 CONDUIT    383.29     0  03:01      0.63    0.19    1.00
  YS02001655YS02001652 CONDUIT    381.71     0  03:01      0.98    0.19    1.00
  YS02001658YS02001655 CONDUIT    398.51     0  02:18      1.22    0.17    1.00
  YS02001661YS02001658 CONDUIT    593.41     0  02:23      1.55    0.23    1.00
  YS02001664YS02001661 CONDUIT    642.34     0  02:39      1.43    0.20    0.76
  YSB1154YSB6556       CONDUIT     25.82     0  03:01      0.17    0.05    0.59
  YSB1174YSB1171       CONDUIT     20.15     0  03:01      0.07    0.03    0.70
  YSB1171HS02004479    CONDUIT     44.91     0  03:02      0.54    0.03    0.55
  HS02004881HS02006253 CONDUIT    108.40     0  02:56      2.14    0.02    0.53
  YS02001793JiankangQianchi CONDUIT    984.66     0  03:00     16.75    0.08    1.00
  YS02001757CaochengTiaoxuchi CONDUIT   1577.79     0  02:35      2.02    0.69    1.00
  WSF200WS02003060     CONDUIT    830.25     0  03:05      1.85    0.18    0.42
  1                    CONDUIT   1226.42     0  03:08      3.51    0.43    0.46
  CC-Pump-1            PUMP       200.00     0  03:00              1.00
  CC-Pump-2            PUMP       200.00     0  06:20              1.00
  JK-Pump-1            PUMP       300.00     0  00:00              1.00
  JK-Pump-2            PUMP       683.00     0  02:10              1.00
  XR-Pump-1            PUMP        95.00     0  00:00              1.00
  XR-Pump-2            PUMP        95.00     0  00:00              1.00
  XR-Pump-3            PUMP        95.00     0  00:00              1.00
  XR-Pump-4            PUMP        95.00     0  00:00              1.00
  
  
  ***************************
  Flow Classification Summary
  ***************************
  
  -------------------------------------------------------------------------------------
                      Adjusted    ---------- Fraction of Time in Flow Class ---------- 
                       /Actual         Up    Down  Sub   Sup   Up    Down  Norm  Inlet 
  Conduit               Length    Dry  Dry   Dry   Crit  Crit  Crit  Crit  Ltd   Ctrl  
  -------------------------------------------------------------------------------------
  WS02003066WSF200        1.00   0.01  0.02  0.00  0.00  0.96  0.00  0.00  0.69  0.00
  WS02006287WS02006284    1.00   0.04  0.02  0.00  0.61  0.34  0.00  0.00  0.62  0.00
  WS02006284WS02006280    1.00   0.05  0.00  0.00  0.00  0.00  0.00  0.95  0.00  0.00
  WS02006280WS02006229    1.00   0.05  0.00  0.00  0.00  0.02  0.00  0.93  0.02  0.00
  WS02006229WS02006228    1.00   0.00  0.00  0.00  0.99  0.00  0.00  0.01  0.00  0.00
  WS02006256WS02006235    1.00   0.00  0.00  0.00  1.00  0.00  0.00  0.00  0.00  0.00
  WS02006253WS02006251    1.00   0.02  0.02  0.00  0.95  0.00  0.01  0.00  0.00  0.00
  WS02006252WS02006251    1.00   0.22  0.09  0.00  0.07  0.00  0.62  0.00  0.00  0.00
  WS02006251WS02006249    1.00   0.00  0.00  0.00  1.00  0.00  0.00  0.00  0.36  0.00
  WS02006249WS02006248    1.00   0.00  0.01  0.00  0.84  0.00  0.15  0.00  0.00  0.00
  WS02006248WS02006247    1.00   0.01  0.00  0.00  0.99  0.00  0.00  0.00  0.22  0.00
  WS02006247WS02006245    1.00   0.01  0.00  0.00  0.98  0.00  0.00  0.01  0.00  0.00
  WS02006245WS02006243    1.00   0.00  0.00  0.00  0.93  0.00  0.00  0.06  0.00  0.00
  WS02006243WS02006242    1.00   0.00  0.00  0.00  1.00  0.00  0.00  0.00  0.30  0.00
  WS02006242WS02006240    1.00   0.00  0.00  0.00  0.98  0.00  0.01  0.00  0.00  0.00
  WS02006240WS02006239    1.00   0.00  0.00  0.00  0.91  0.00  0.00  0.09  0.02  0.00
  WS02006239WS02006238    1.00   0.00  0.00  0.00  1.00  0.00  0.00  0.00  0.12  0.00
  WS02006238WS02006235    1.00   0.00  0.00  0.00  1.00  0.00  0.00  0.00  0.00  0.00
  WS02006235WS02006234    1.00   0.00  0.00  0.00  0.94  0.00  0.06  0.00  0.00  0.00
  WS02006234WS02006232    1.00   0.00  0.00  0.00  1.00  0.00  0.00  0.00  0.08  0.00
  WS02006232WS02006231    1.00   0.00  0.00  0.00  1.00  0.00  0.00  0.00  0.00  0.00
  WS02006231WS02006230    1.00   0.00  0.00  0.00  0.53  0.00  0.47  0.00  0.00  0.00
  WS02006230WS02006229    1.00   0.00  0.00  0.00  0.99  0.00  0.00  0.01  0.00  0.00
  WS02006228WS02006109    1.00   0.00  0.00  0.00  1.00  0.00  0.00  0.00  0.01  0.00
  WS02006116WS02004401    1.00   0.01  0.00  0.00  0.99  0.00  0.00  0.00  0.00  0.00
  WS02006115WS02006116    1.00   0.01  0.00  0.00  0.99  0.00  0.00  0.00  0.00  0.00
  WS02006113WS02006111    1.00   0.01  0.00  0.00  0.03  0.97  0.00  0.00  0.23  0.00
  WS02006112WS02006115    1.00   0.01  0.00  0.00  0.99  0.00  0.00  0.00  0.00  0.00
  WS02006111WS02006112    1.00   0.01  0.00  0.00  0.99  0.00  0.00  0.00  0.93  0.00
  WS02006110WS02006113    1.00   0.00  0.00  0.00  0.99  0.00  0.00  0.00  0.00  0.00
  WS02006109WS02006110    1.00   0.00  0.00  0.00  0.99  0.00  0.00  0.00  0.00  0.00
  WS02004411WS02004412    1.00   0.02  0.00  0.00  0.98  0.00  0.00  0.00  0.00  0.00
  WS02004401WS02004402    1.00   0.01  0.00  0.00  0.99  0.00  0.00  0.00  0.00  0.00
  WS02004413WS02003067    1.00   0.02  0.01  0.00  0.00  0.00  0.97  0.00  0.00  0.00
  WS02004412WS02004413    1.00   0.02  0.00  0.00  0.98  0.00  0.00  0.00  0.01  0.00
  WS02004410WS02004411    1.00   0.02  0.00  0.00  0.98  0.00  0.00  0.00  0.00  0.00
  WS02004409WS02004410    1.00   0.02  0.00  0.00  0.98  0.00  0.00  0.00  0.02  0.00
  WS02004407WS02004409    1.00   0.02  0.00  0.00  0.98  0.00  0.00  0.00  0.95  0.00
  WS02004406WS02004407    1.00   0.00  0.02  0.00  0.98  0.00  0.00  0.00  0.00  0.00
  WS02004405WS02004406    1.00   0.00  0.00  0.00  1.00  0.00  0.00  0.00  0.00  0.00
  WS02004404WS02004405    1.00   0.00  0.00  0.00  1.00  0.00  0.00  0.00  0.00  0.00
  WS02004403WS02004404    1.00   0.00  0.01  0.00  0.99  0.00  0.00  0.00  0.00  0.00
  WS02004402WS02004403    1.00   0.01  0.00  0.00  0.99  0.00  0.00  0.00  0.00  0.00
  WS02004139WS02001211    1.00   0.00  0.00  0.00  1.00  0.00  0.00  0.00  0.00  0.00
  WS02004138WS02004139    1.00   0.00  0.00  0.00  1.00  0.00  0.00  0.00  1.00  0.00
  WS02003067WS02003066    1.00   0.03  0.00  0.00  0.97  0.00  0.00  0.00  0.00  0.00
  WS02001213WS02003059    1.00   0.00  0.00  0.00  1.00  0.00  0.00  0.00  0.00  0.00
  WS02001212WS02001213    1.00   0.00  0.00  0.00  0.91  0.00  0.09  0.00  0.00  0.00
  WS02001211WS02001212    1.00   0.00  0.00  0.00  1.00  0.00  0.00  0.00  0.00  0.00
  WS02003072WS02003073    1.00   0.00  0.00  0.00  0.00  0.00  0.00  1.00  0.00  0.00
  WS02003069WS02003072    1.00   0.00  0.00  0.00  1.00  0.00  0.00  0.00  0.11  0.00
  WS02003060WS02003069    1.00   0.00  0.00  0.00  0.99  0.01  0.00  0.00  0.08  0.00
  WS02003059WS02003060    1.00   0.00  0.00  0.00  1.00  0.00  0.00  0.00  0.01  0.00
  HS02004901HS02004770    1.00   0.04  0.00  0.00  0.96  0.00  0.00  0.00  0.00  0.00
  HS02004876HS02004881    1.00   0.01  0.00  0.00  0.91  0.08  0.00  0.00  0.00  0.00
  HS02004870HS02004876    1.00   0.00  0.00  0.00  0.99  0.00  0.00  0.00  0.95  0.00
  HS02004842HS02004848    1.00   0.00  0.04  0.00  0.95  0.00  0.00  0.00  0.55  0.00
  HS02004837HS02004842    1.00   0.00  0.00  0.00  1.00  0.00  0.00  0.00  0.11  0.00
  HS02004830HS02004837    1.00   0.00  0.00  0.00  1.00  0.00  0.00  0.00  0.99  0.00
  HS02004824HS02004830    1.00   0.00  0.00  0.00  1.00  0.00  0.00  0.00  0.00  0.00
  HS02004817HS02004824    1.00   0.00  0.00  0.00  1.00  0.00  0.00  0.00  1.00  0.00
  HS02004770HS02004777    1.00   0.00  0.04  0.00  0.96  0.00  0.00  0.00  0.02  0.00
  HS02004799HS02004480    1.00   0.00  0.02  0.00  0.95  0.00  0.04  0.00  0.00  0.00
  HS02004792HS02004799    1.00   0.00  0.00  0.00  0.99  0.01  0.00  0.00  0.98  0.00
  HS02004788HS02004792    1.00   0.00  0.00  0.00  1.00  0.00  0.00  0.00  0.98  0.00
  HS02004785HS02004788    1.00   0.00  0.00  0.00  1.00  0.00  0.00  0.00  0.00  0.00
  HS02004777HS02004785    1.00   0.00  0.00  0.00  1.00  0.00  0.00  0.00  0.12  0.00
  HS02004480HS02004478    1.00   0.05  0.00  0.00  0.66  0.00  0.00  0.29  0.00  0.00
  HS02004479HS02004480    1.00   0.02  0.00  0.00  0.98  0.00  0.00  0.00  0.11  0.00
  HS02004862HS02004870    1.00   0.00  0.00  0.00  1.00  0.00  0.00  0.00  0.03  0.00
  HS02004848HS02004852    1.00   0.05  0.00  0.00  0.95  0.00  0.00  0.00  0.62  0.00
  HS02004856HS02004862    1.00   0.00  0.06  0.00  0.94  0.00  0.00  0.00  0.83  0.00
  HS02004852HS02004856    1.00   0.04  0.00  0.00  0.95  0.00  0.00  0.00  0.85  0.00
  HS02004802HS02004478    1.00   0.05  0.00  0.00  0.95  0.00  0.00  0.00  0.02  0.00
  HS02004478WS02006287    1.00   0.05  0.00  0.00  0.71  0.23  0.00  0.00  0.64  0.00
  HS02004817HS02004807    1.00   0.00  0.04  0.00  0.96  0.00  0.00  0.00  0.01  0.00
  HS02004807HS02004802    1.00   0.04  0.00  0.00  0.95  0.00  0.00  0.01  0.00  0.00
  YS02001759YS02001757    1.00   0.00  0.00  0.00  1.00  0.00  0.00  0.00  0.16  0.00
  YS02001762YS02001759    1.00   0.00  0.00  0.00  1.00  0.00  0.00  0.00  0.03  0.00
  YS02001765YS02001762    1.00   0.00  0.00  0.00  1.00  0.00  0.00  0.00  0.13  0.00
  YS02001770YS02001767    1.00   0.00  0.00  0.00  1.00  0.00  0.00  0.00  0.00  0.00
  YS02001774YS02001770    1.00   0.00  0.05  0.00  0.95  0.00  0.00  0.00  0.03  0.00
  YS02001779YS02001774    1.00   0.00  0.00  0.00  1.00  0.00  0.00  0.00  0.18  0.00
  YS02001649YS02001757    1.00   0.00  0.00  0.00  1.00  0.00  0.00  0.00  0.16  0.00
  YS02001767YS02001765    1.00   0.00  0.00  0.00  1.00  0.00  0.00  0.00  0.00  0.00
  YS02006561YS02001783    1.00   0.06  0.00  0.00  0.33  0.61  0.00  0.00  0.49  0.00
  YS02001783YS02001784    1.00   0.00  0.06  0.00  0.94  0.00  0.00  0.00  0.01  0.00
  YS02001784YS02001785    1.00   0.00  0.00  0.00  1.00  0.00  0.00  0.00  0.17  0.00
  YS02001788YS02001790    1.00   0.00  0.00  0.00  0.40  0.60  0.00  0.00  0.40  0.00
  YS02001790YS02001791    1.00   0.00  0.00  0.00  0.35  0.65  0.00  0.00  0.48  0.00
  YS02001791YS02001793    1.00   0.00  0.00  0.00  0.37  0.63  0.00  0.00  0.03  0.00
  YS02001910YS02001907    1.00   0.00  0.00  0.00  0.99  0.00  0.00  0.01  0.12  0.00
  YS02001786YS02001788    1.00   0.00  0.00  0.00  0.38  0.62  0.00  0.00  0.00  0.00
  YS02001915YS02001910    1.00   0.00  0.00  0.00  0.99  0.01  0.00  0.00  0.15  0.00
  YS02001918YS02001915    1.00   0.00  0.00  0.00  0.99  0.01  0.00  0.00  0.54  0.00
  YS02001923YS02001920    1.00   0.00  0.00  0.00  1.00  0.00  0.00  0.00  0.84  0.00
  YS02001926YS02001923    1.00   0.00  0.03  0.00  0.14  0.00  0.83  0.00  0.00  0.00
  YS02001929YS02001926    1.00   0.00  0.04  0.00  0.96  0.00  0.00  0.00  0.76  0.00
  YS02001920YS02001918    1.00   0.00  0.00  0.00  1.00  0.00  0.00  0.00  0.00  0.00
  YS02001629YS02163301    1.00   0.05  0.00  0.00  0.95  0.00  0.00  0.00  0.00  0.00
  YS02001619YS02001622    1.00   0.04  0.00  0.00  0.96  0.00  0.00  0.00  0.00  0.00
  YS02001622YS02001625    1.00   0.05  0.00  0.00  0.95  0.00  0.00  0.00  0.04  0.00
  YS02001625YS02001629    1.00   0.05  0.02  0.00  0.92  0.00  0.02  0.00  0.00  0.00
  YS02163301YS02001633    1.00   0.00  0.05  0.00  0.95  0.00  0.00  0.00  0.00  0.00
  YS02163601YS02164001    1.00   0.00  0.03  0.00  0.97  0.00  0.00  0.00  0.00  0.00
  YS02164001YS02001641    1.00   0.00  0.03  0.00  0.97  0.00  0.00  0.00  0.06  0.00
  YS02001641YS02001644    1.00   0.00  0.00  0.00  1.00  0.00  0.00  0.00  0.00  0.00
  YS02001647YS02001649    1.00   0.00  0.06  0.00  0.94  0.00  0.00  0.00  0.01  0.00
  YS02006553YS02006556    1.00   0.01  0.00  0.00  0.99  0.00  0.00  0.00  0.03  0.00
  YS02006556YS02006558    1.00   0.00  0.00  0.00  1.00  0.00  0.00  0.00  0.00  0.00
  YSB6556YSB1171          1.00   0.02  0.02  0.00  0.96  0.00  0.00  0.00  0.00  0.00
  YS02001907YS02006553    1.00   0.00  0.01  0.00  0.99  0.00  0.00  0.00  0.00  0.00
  YS02006558YS02006561    1.00   0.06  0.00  0.00  0.14  0.80  0.00  0.00  0.50  0.00
  YS02001633YS02163601    1.00   0.00  0.00  0.00  1.00  0.00  0.00  0.00  0.15  0.00
  YS02001644YS02001647    1.00   0.00  0.06  0.00  0.94  0.00  0.00  0.00  0.00  0.00
  YS02001745YS02001748    1.00   0.00  0.00  0.00  0.89  0.01  0.00  0.10  0.04  0.00
  YS02001748YS02001751    1.00   0.00  0.00  0.00  0.96  0.04  0.00  0.00  0.15  0.00
  YS02001751YS02001754    1.00   0.00  0.00  0.00  0.93  0.00  0.00  0.07  0.02  0.00
  YS02001754YS02001757    1.00   0.00  0.00  0.00  1.00  0.00  0.00  0.00  0.18  0.00
  YS02001882YS02001884    1.00   0.05  0.00  0.00  0.95  0.00  0.00  0.00  0.00  0.00
  YS02001884YS02001887    1.00   0.02  0.02  0.00  0.96  0.00  0.00  0.00  0.00  0.00
  YS02001890YS02001895    1.00   0.00  0.05  0.00  0.95  0.00  0.00  0.00  0.00  0.00
  YS02001895YS02001898    1.00   0.05  0.00  0.00  0.93  0.00  0.01  0.00  0.00  0.00
  YS02001898YS02001901    1.00   0.05  0.00  0.00  0.95  0.00  0.00  0.00  0.01  0.00
  YS02001901YS02001904    1.00   0.05  0.00  0.00  0.95  0.00  0.00  0.00  0.00  0.00
  YS02001904YS02001907    1.00   0.00  0.05  0.00  0.95  0.00  0.00  0.00  0.00  0.00
  YS02001887YS02001890    1.00   0.00  0.00  0.00  0.98  0.00  0.01  0.00  0.00  0.00
  YS02001652YS02001649    1.00   0.00  0.00  0.00  1.00  0.00  0.00  0.00  0.16  0.00
  YS02001655YS02001652    1.00   0.00  0.00  0.00  0.93  0.00  0.00  0.07  0.02  0.00
  YS02001658YS02001655    1.00   0.00  0.05  0.00  0.92  0.03  0.00  0.00  0.08  0.00
  YS02001661YS02001658    1.00   0.05  0.00  0.00  0.89  0.06  0.00  0.00  0.09  0.00
  YS02001664YS02001661    1.00   0.04  0.00  0.00  0.90  0.06  0.00  0.00  0.19  0.00
  YSB1154YSB6556          1.00   0.04  0.00  0.00  0.96  0.00  0.00  0.00  0.01  0.00
  YSB1174YSB1171          1.00   0.02  0.01  0.00  0.97  0.00  0.00  0.00  0.00  0.00
  YSB1171HS02004479       1.00   0.02  0.00  0.00  0.98  0.00  0.00  0.00  0.10  0.00
  HS02004881HS02006253    1.00   0.02  0.00  0.00  0.40  0.02  0.00  0.55  0.27  0.00
  YS02001793JiankangQianchi    1.00   0.00  0.00  0.00  0.67  0.33  0.00  0.00  0.43  0.00
  YS02001757CaochengTiaoxuchi    1.00   0.00  0.08  0.00  0.92  0.00  0.00  0.00  0.00  0.00
  WSF200WS02003060        1.00   0.00  0.01  0.00  0.99  0.00  0.00  0.00  0.61  0.00
  1                       1.00   0.00  0.00  0.00  0.00  1.00  0.00  0.00  0.46  0.00
  
  
  *************************
  Conduit Surcharge Summary
  *************************
  
  ----------------------------------------------------------------------------
                                                           Hours        Hours 
                         --------- Hours Full --------   Above Full   Capacity
  Conduit                Both Ends  Upstream  Dnstream   Normal Flow   Limited
  ----------------------------------------------------------------------------
  WS02006229WS02006228        2.24      2.38      2.24      3.71         2.24
  WS02006256WS02006235        5.27      5.27      6.88      4.04         0.01
  WS02006253WS02006251        0.80      0.80      0.81      0.01         0.01
  WS02006252WS02006251        0.77      0.77      1.10      0.92         0.01
  WS02006251WS02006249        0.81      0.81      0.84      0.59         0.45
  WS02006249WS02006248        0.82      0.83      0.84      1.44         0.01
  WS02006248WS02006247        0.84      0.84      0.90      0.01         0.01
  WS02006247WS02006245        0.91      0.92      0.91      2.05         0.87
  WS02006245WS02006243        0.92      0.92      0.97      0.08         0.04
  WS02006243WS02006242        1.00      1.00      1.15      0.01         0.01
  WS02006242WS02006240        1.12      1.12      1.21      0.79         0.01
  WS02006240WS02006239        1.14      1.14      1.20      0.41         0.34
  WS02006239WS02006238        1.30      1.30      1.51      0.41         0.36
  WS02006238WS02006235        1.50      1.50      1.76      0.01         0.01
  WS02006235WS02006234        1.25      1.25      1.45      5.12         0.01
  WS02006234WS02006232        1.38      1.38      2.01      0.45         0.45
  WS02006232WS02006231        1.01      1.01      2.01      0.50         0.01
  WS02006231WS02006230        0.82      0.82      1.05      5.38         0.01
  WS02006230WS02006229        2.85      3.33      2.85      5.73         2.85
  WS02006228WS02006109        2.29      2.61      2.29      4.60         2.29
[...]
  YS02001765YS02001762        5.84      5.84      5.87      0.01         0.01
  YS02001770YS02001767        5.81      5.81      5.81      0.18         0.73
  YS02001774YS02001770        5.80      5.80      5.86      0.01         0.01
  YS02001779YS02001774        5.67      5.67      5.86      0.01         0.01
  YS02001649YS02001757        5.87      5.87      5.98      0.01         0.01
  YS02001767YS02001765        5.81      5.81      5.84      0.01         0.01
  YS02006561YS02001783        0.77      0.77      1.06      0.01         0.01
  YS02001783YS02001784        1.03      1.06      1.04      1.40         1.01
  YS02001784YS02001785        0.98      1.04      0.98      2.41         0.98
  YS02001788YS02001790        0.93      0.93      1.79      0.01         0.01
  YS02001790YS02001791        1.79      1.79      1.90      0.87         0.84
  YS02001791YS02001793        1.90      1.90      2.31      0.01         0.01
  YS02001910YS02001907        1.07      1.07      1.77      0.01         0.01
  YS02001786YS02001788        0.93      0.98      0.93      1.99         0.93
  YS02001915YS02001910        0.89      0.89      1.07      0.01         0.01
  YS02001918YS02001915        0.71      0.71      0.89      0.01         0.01
  YS02001923YS02001920        0.54      0.54      0.74      0.01         0.01
  YS02001920YS02001918        0.71      0.71      0.74      0.01         0.01
  YS02001629YS02163301        5.80      5.80      5.81      0.01         0.01
  YS02001619YS02001622        5.47      5.47      5.50      0.01         0.01
  YS02001622YS02001625        5.50      5.50      5.76      0.01         0.01
  YS02001625YS02001629        5.47      5.47      5.76      0.01         0.01
  YS02163301YS02001633        5.81      5.81      5.84      0.01         0.01
  YS02163601YS02164001        5.84      5.84      5.87      0.01         0.01
  YS02164001YS02001641        5.84      5.84      5.85      0.01         0.03
  YS02001641YS02001644        5.85      5.85      5.85      1.52         1.52
  YS02001647YS02001649        5.75      5.75      5.87      0.01         0.01
  YS02006553YS02006556        1.30      1.30      1.88      0.01         0.01
  YS02006556YS02006558        1.53      1.53      1.96      0.01         0.01
  YS02001907YS02006553        2.43      2.43      2.63      0.01         0.01
  YS02006558YS02006561        0.91      1.26      0.91      2.23         0.91
  YS02001633YS02163601        5.83      5.83      5.87      0.01         0.01
  YS02001644YS02001647        5.75      5.75      5.85      0.01         0.01
  YS02001745YS02001748        0.01      0.01      5.30      0.01         0.01
  YS02001748YS02001751        5.36      5.36      5.48      0.01         0.01
  YS02001751YS02001754        5.48      5.48      5.69      0.01         0.01
  YS02001754YS02001757        5.74      5.74      5.98      0.01         0.01
  YS02001882YS02001884        0.91      0.91      0.93      0.01         0.01
  YS02001884YS02001887        0.97      0.97      1.00      0.01         0.01
  YS02001890YS02001895        0.88      0.88      1.08      0.01         0.01
  YS02001895YS02001898        0.87      0.87      0.88      0.01         0.01
  YS02001898YS02001901        0.89      0.89      0.97      0.01         0.01
  YS02001901YS02001904        0.94      0.94      0.97      0.01         0.01
  YS02001904YS02001907        0.94      0.94      1.90      0.01         0.01
  YS02001887YS02001890        1.02      1.02      1.04      0.01         0.01
  YS02001652YS02001649        5.76      5.76      5.87      0.01         0.01
  YS02001655YS02001652        5.50      5.50      5.73      0.01         0.01
  YS02001658YS02001655        5.33      5.33      5.50      0.01         0.01
  YS02001661YS02001658        0.14      0.14      5.33      0.01         0.01
  YS02001664YS02001661        0.01      0.01      1.12      0.01         0.01
  HS02004881HS02006253        0.01      0.01      0.59      0.01         0.01
  YS02001793JiankangQianchi        2.21      2.21      4.21      0.01         0.01
  YS02001757CaochengTiaoxuchi        5.21      5.21      5.98      0.01         0.01
  
  
  ***************
  Pumping Summary
  ***************
  
  ---------------------------------------------------------------------------------------------------------
                                                  Min       Avg       Max     Total     Power    % Time Off
                        Percent   Number of      Flow      Flow      Flow    Volume     Usage    Pump Curve
  Pump                 Utilized   Start-Ups       LPS       LPS       LPS  10^6 ltr     Kw-hr    Low   High
  ---------------------------------------------------------------------------------------------------------
  CC-Pump-1               40.40           4      0.00    129.13    200.00     1.440      1.36    0.0    0.0
  CC-Pump-2               21.27           4      0.00    103.67    200.00     0.720      0.92    0.0    0.0
  JK-Pump-1               55.32           5      0.00    221.46    300.00     3.350     51.95    0.0    0.0
  JK-Pump-2               51.07           4      0.00    414.64    683.00     6.107     84.83    0.0   95.4
  XR-Pump-1              100.00           1      0.00     93.74     95.00     2.622     27.71    0.0    0.0
  XR-Pump-2              100.00           1      0.00     93.16     95.00     2.565     26.44    0.0    0.0
  XR-Pump-3               95.74           3      0.00     93.43     95.00     2.451     23.88    0.0    0.0
  XR-Pump-4               95.74           3      0.00     93.43     95.00     2.451     23.88    0.0    0.0
  
  
  ***************************
  Link Pollutant Load Summary
  ***************************
  
  ------------------------------------------------------------------------------------------
                                 COD            SS            TN            TP         NH4-N
  Link                            kg            kg            kg            kg            kg
  ------------------------------------------------------------------------------------------
  WS02003066WSF200           663.739      1225.347        18.331         1.652         9.772
  WS02006287WS02006284       268.060       498.216         9.346         0.943         5.213
  WS02006284WS02006280       268.544       498.996         9.392         0.949         5.243
  WS02006280WS02006229       268.506       498.926         9.390         0.948         5.241
  WS02006229WS02006228       668.014      1233.237        17.987         1.595         9.528
  WS02006256WS02006235       194.440       357.697         4.203         0.323         2.114
  WS02006253WS02006251        51.641        99.535         1.158         0.087         0.576
  WS02006252WS02006251       181.068       327.502         3.850         0.283         1.903
  WS02006251WS02006249       226.144       415.178         4.882         0.362         2.419
  WS02006249WS02006248       207.601       381.014         4.493         0.333         2.228
  WS02006248WS02006247       207.878       381.557         4.496         0.333         2.229
  WS02006247WS02006245       207.777       381.373         4.493         0.333         2.227
  WS02006245WS02006243       207.412       380.806         4.477         0.332         2.218
  WS02006243WS02006242       208.150       382.166         4.492         0.333         2.225
  WS02006242WS02006240       208.600       383.022         4.500         0.333         2.229
  WS02006240WS02006239       209.955       385.546         4.529         0.335         2.243
  WS02006239WS02006238       212.548       390.090         4.599         0.341         2.281
  WS02006238WS02006235       213.787       392.121         4.634         0.345         2.300
  WS02006235WS02006234       401.887       738.435         8.676         0.654         4.330
  WS02006234WS02006232       401.796       738.278         8.677         0.654         4.331
  WS02006232WS02006231       401.400       737.564         8.667         0.653         4.326
  WS02006231WS02006230       401.183       737.158         8.663         0.653         4.324
  WS02006230WS02006229       400.451       735.934         8.641         0.651         4.312
  WS02006228WS02006109       667.043      1231.556        17.948         1.590         9.505
  WS02006116WS02004401       678.030      1250.706        18.706         1.684         9.969
  WS02006115WS02006116       679.429      1253.189        18.744         1.687         9.988
  WS02006113WS02006111       673.270      1241.229        18.672         1.683         9.963
  WS02006112WS02006115       680.693      1255.408        18.788         1.691        10.013
  WS02006111WS02006112       672.656      1240.142        18.652         1.681         9.952
  WS02006110WS02006113       673.702      1241.966        18.692         1.685         9.974
  WS02006109WS02006110       674.732      1243.739        18.738         1.690        10.001
  WS02004411WS02004412       667.469      1231.832        18.476         1.667         9.854
  WS02004401WS02004402       676.607      1248.197        18.661         1.679         9.943
  WS02004413WS02003067       664.458      1226.620        18.352         1.654         9.783
  WS02004412WS02004413       666.058      1229.365        18.426         1.662         9.826
  WS02004410WS02004411       668.629      1233.871        18.514         1.670         9.875
  WS02004409WS02004410       669.788      1235.903        18.554         1.674         9.898
  WS02004407WS02004409       670.729      1237.570        18.580         1.677         9.911
  WS02004406WS02004407       670.977      1238.027        18.580         1.676         9.910
  WS02004405WS02004406       672.790      1241.196        18.648         1.683         9.949
  WS02004404WS02004405       674.245      1243.837        18.663         1.683         9.954
  WS02004403WS02004404       673.975      1243.547        18.581         1.672         9.900
  WS02004402WS02004403       675.226      1245.751        18.622         1.676         9.923
  WS02004139WS02001211      1416.860      2334.047       117.864        14.434        72.787
  WS02004138WS02004139      1423.187      2344.505       118.372        14.496        73.100
  WS02003067WS02003066       663.940      1225.695        18.339         1.653         9.776
  WS02001213WS02003059      1449.977      2386.317       121.256        14.861        74.916
  WS02001212WS02001213      1459.035      2401.197       122.012        14.954        75.384
  WS02001211WS02001212      1461.123      2404.592       122.196        14.977        75.498
  WS02003072WS02003073      2213.661      3770.687       149.486        17.755        90.888
  WS02003069WS02003072      2218.502      3778.563       149.899        17.806        91.144
  WS02003060WS02003069      2221.299      3783.288       150.081        17.827        91.254
  WS02003059WS02003060      1447.035      2381.401       121.035        14.835        74.781
  HS02004901HS02004770        10.270        19.477         0.195         0.015         0.091
  HS02004876HS02004881        37.319        72.582         0.843         0.062         0.416
  HS02004870HS02004876        28.162        54.631         0.678         0.051         0.338
  HS02004842HS02004848         5.467        10.277         0.115         0.008         0.053
  HS02004837HS02004842        10.073        17.582         0.584         0.067         0.347
  HS02004830HS02004837        65.639       112.705         4.556         0.546         2.785
  HS02004824HS02004830        66.389       113.907         4.628         0.555         2.829
  HS02004817HS02004824        88.206       156.976         5.083         0.584         3.051
  HS02004770HS02004777        39.296        75.467         0.819         0.055         0.377
  HS02004799HS02004480       131.412       245.375         3.680         0.335         1.932
  HS02004792HS02004799       119.087       220.666         3.497         0.327         1.853
  HS02004788HS02004792        68.397       126.859         2.388         0.235         1.309
  HS02004785HS02004788        40.734        77.762         0.969         0.074         0.471
  HS02004777HS02004785        40.060        76.667         0.909         0.067         0.434
  HS02004480HS02004478       165.955       312.602         4.243         0.375         2.196
  HS02004479HS02004480        38.148        72.979         0.884         0.079         0.462
  HS02004862HS02004870        21.017        40.119         0.536         0.043         0.270
  HS02004848HS02004852         8.058        15.280         0.167         0.011         0.077
  HS02004856HS02004862        14.072        27.342         0.284         0.019         0.133
  HS02004852HS02004856         8.064        15.291         0.167         0.011         0.077
  HS02004802HS02004478       102.887       186.892         5.162         0.575         3.055
  HS02004478WS02006287       268.258       498.549         9.363         0.945         5.224
  HS02004817HS02004807        86.889       154.864         4.956         0.568         2.972
  HS02004807HS02004802       103.114       187.245         5.194         0.580         3.075
  YS02001759YS02001757       287.141       521.872         5.767         0.400         2.820
  YS02001762YS02001759       156.984       285.195         3.316         0.233         1.640
  YS02001765YS02001762       158.101       287.997         3.356         0.237         1.662
  YS02001770YS02001767       161.079       295.662         3.265         0.219         1.590
  YS02001774YS02001770       227.109       431.570         4.439         0.294         2.149
  YS02001779YS02001774       226.471       430.281         4.533         0.309         2.214
  YS02001649YS02001757       365.858       654.180         7.398         0.507         3.560
  YS02001767YS02001765       159.863       291.997         3.402         0.240         1.686
  YS02006561YS02001783       936.156      1716.888        19.829         1.488         9.895
  YS02001783YS02001784       936.074      1716.774        19.825         1.487         9.893
  YS02001784YS02001785       943.415      1728.542        20.538         1.577        10.339
  YS02001788YS02001790       943.991      1729.479        20.610         1.586        10.385
  YS02001790YS02001791       945.009      1731.129        20.711         1.599        10.448
  YS02001791YS02001793       944.946      1731.025        20.707         1.598        10.445
  YS02001910YS02001907       330.095       599.229         8.226         0.641         4.249
  YS02001786YS02001788       943.618      1728.883        20.566         1.580        10.357
  YS02001915YS02001910       330.186       599.371         8.183         0.635         4.220
  YS02001918YS02001915       159.748       277.672         4.651         0.432         2.532
  YS02001923YS02001920       137.501       241.231         2.668         0.187         1.298
  YS02001926YS02001923       136.571       239.710         2.592         0.178         1.251
  YS02001929YS02001926       136.173       239.034         2.555         0.174         1.228
  YS02001920YS02001918       157.653       273.572         4.580         0.426         2.493
  YS02001629YS02163301       103.480       183.362         2.170         0.140         1.012
  YS02001619YS02001622       146.404       262.952         3.031         0.197         1.414
  YS02001622YS02001625       145.243       261.116         3.003         0.195         1.401
  YS02001625YS02001629       104.562       185.148         2.194         0.141         1.022
  YS02163301YS02001633       103.191       182.874         2.163         0.140         1.009
  YS02163601YS02164001       362.026       646.193         7.115         0.502         3.403
  YS02164001YS02001641       361.538       645.375         7.095         0.500         3.392
  YS02001641YS02001644       361.787       645.726         7.095         0.500         3.391
  YS02001647YS02001649       427.960       772.603         8.567         0.590         4.101
  YS02006553YS02006556       657.593      1200.374        14.230         1.094         7.176
  YS02006556YS02006558       657.602      1200.383        14.199         1.090         7.155
  YSB6556YSB1171              21.954        42.199         0.451         0.038         0.229
  YS02001907YS02006553       657.687      1200.567        14.243         1.096         7.185
  YS02006558YS02006561       936.149      1716.861        19.828         1.488         9.895
  YS02001633YS02163601       362.703       647.233         7.095         0.498         3.387
  YS02001644YS02001647       433.789       783.053         8.660         0.596         4.144
  YS02001745YS02001748       210.502       387.129         4.779         0.336         2.393
  YS02001748YS02001751       208.685       383.623         4.841         0.348         2.441
  YS02001751YS02001754       207.704       382.017         4.823         0.348         2.433
  YS02001754YS02001757       208.476       383.184         4.987         0.370         2.539
  YS02001882YS02001884         2.634         4.534         0.053         0.004         0.027
  YS02001884YS02001887         6.896        12.218         0.135         0.010         0.067
  YS02001890YS02001895       389.473       720.673         7.189         0.539         3.508
  YS02001895YS02001898       389.305       720.448         7.183         0.539         3.505
  YS02001898YS02001901       389.093       720.090         7.178         0.538         3.502
  YS02001901YS02001904       388.953       719.898         7.185         0.540         3.507
  YS02001904YS02001907       389.174       720.239         7.239         0.547         3.542
  YS02001887YS02001890       390.267       721.857         7.244         0.546         3.541
  YS02001652YS02001649       159.706       291.810         3.259         0.234         1.527
  YS02001655YS02001652       160.547       293.147         3.281         0.236         1.538
  YS02001658YS02001655       160.305       292.736         3.201         0.224         1.484
  YS02001661YS02001658       164.985       301.037         3.297         0.231         1.528
  YS02001664YS02001661       177.638       321.839         3.581         0.250         1.658
  YSB1154YSB6556              21.533        41.530         0.402         0.032         0.198
  YSB1174YSB1171              14.655        28.292         0.298         0.024         0.150
  YSB1171HS02004479           38.107        72.913         0.888         0.079         0.465
  HS02004881HS02006253        42.256        82.482         0.933         0.068         0.459
  YS02001793JiankangQianchi       945.521      1731.921        20.741         1.602        10.466
  YS02001757CaochengTiaoxuchi       499.136       894.862        10.698         0.779         5.282
  WSF200WS02003060           663.427      1224.779        18.326         1.652         9.770
  1                         2218.780      3778.247       150.167        17.843        91.322
  CC-Pump-1                  121.370       219.715         2.576         0.189         1.273
  CC-Pump-2                   59.620       107.657         1.269         0.093         0.627
  JK-Pump-1                  221.406       410.723         4.669         0.354         2.334
  JK-Pump-2                  504.061       935.068        10.630         0.805         5.314
  XR-Pump-1                  379.530       624.134        31.860         3.907        19.691
  XR-Pump-2                  366.887       603.906        30.646         3.755        18.933
  XR-Pump-3                  340.216       561.235        28.087         3.436        17.333
  XR-Pump-4                  340.216       561.235        28.087         3.436        17.333
  

  Analysis begun on:  Wed Jun  2 22:02:31 2021
  Analysis ended on:  Wed Jun  2 22:02:34 2021
  Total elapsed time: 00:00:03