
  EPA STORM WATER MANAGEMENT MODEL - VERSION 5.1 (Build 5.1.013)
  --------------------------------------------------------------

  WARNING 04: minimum elevation drop used for Conduit WS02004404WS02004405
  WARNING 03: negative offset ignored for Link YS02001904YS02001907
  
  *********************************************************
  NOTE: The summary statistics displayed in this report are
  based on results found at every computational time step,  
  not just on results from each reporting time step.
  *********************************************************
  
  ****************
  Analysis Options
  ****************
  Flow Units ............... LPS
  Process Models:
    Rainfall/Runoff ........ YES
    RDII ................... NO
    Snowmelt ............... NO
    Groundwater ............ NO
    Flow Routing ........... YES
    Ponding Allowed ........ NO
    Water Quality .......... YES
  Infiltration Method ...... HORTON
  Flow Routing Method ...... DYNWAVE
  Surcharge Method ......... EXTRAN
  Starting Date ............ 08/28/2015 08:00:00
  Ending Date .............. 08/28/2015 15:50:00
  Antecedent Dry Days ...... 8.0
  Report Time Step ......... 00:01:00
  Wet Time Step ............ 00:01:00
  Dry Time Step ............ 00:01:00
  Routing Time Step ........ 5.00 sec
  Variable Time Step ....... YES
  Maximum Trials ........... 8
  Number of Threads ........ 4
  Head Tolerance ........... 0.001500 m
  
  
  **************************        Volume         Depth
  Runoff Quantity Continuity     hectare-m            mm
  **************************     ---------       -------
  Total Precipitation ......         5.556        12.164
  Evaporation Loss .........         0.000         0.000
  Infiltration Loss ........         1.002         2.194
  Surface Runoff ...........         3.688         8.075
  Final Storage ............         0.866         1.897
  Continuity Error (%) .....        -0.019
  
  
  **************************           COD            SS            TN            TP         NH4-N
  Runoff Quality Continuity             kg            kg            kg            kg            kg
  **************************    ----------    ----------    ----------    ----------    ----------
  Initial Buildup ..........     41378.656     70582.865      1804.177       168.684      1032.807
  Surface Buildup ..........        19.273        34.266         2.335         0.213         1.362
  Wet Deposition ...........         0.000         0.000         0.000         0.000         0.000
  Sweeping Removal .........         0.000         0.000         0.000         0.000         0.000
  Infiltration Loss ........        84.022       157.500         1.599         0.111         0.761
  BMP Removal ..............         0.000         0.000         0.000         0.000         0.000
  Surface Runoff ...........      3122.057      5752.125        60.620         4.098        28.771
  Remaining Buildup ........     38190.796     64705.527      1744.271       164.686      1004.628
  Continuity Error (%) .....         0.003         0.003         0.001         0.001         0.001
  
  
  **************************        Volume        Volume
  Flow Routing Continuity        hectare-m      10^6 ltr
  **************************     ---------     ---------
  Dry Weather Inflow .......         0.616         6.165
  Wet Weather Inflow .......         3.687        36.870
  Groundwater Inflow .......         0.000         0.000
  RDII Inflow ..............         0.000         0.000
  External Inflow ..........         0.102         1.024
  External Outflow .........         2.145        21.449
  Flooding Loss ............         1.905        19.045
  Evaporation Loss .........         0.000         0.000
  Exfiltration Loss ........         0.000         0.000
  Initial Stored Volume ....         0.076         0.761
  Final Stored Volume ......         0.595         5.954
  Continuity Error (%) .....        -3.635
  
  
  **************************           COD            SS            TN            TP         NH4-N
  Quality Routing Continuity            kg            kg            kg            kg            kg
  **************************    ----------    ----------    ----------    ----------    ----------
  Dry Weather Inflow .......      1541.147      2465.835       147.950        18.494        92.469
  Wet Weather Inflow .......      3121.312      5750.870        60.604         4.097        28.763
  Groundwater Inflow .......         0.000         0.000         0.000         0.000         0.000
  RDII Inflow ..............         0.000         0.000         0.000         0.000         0.000
  External Inflow ..........       183.412       293.459        17.608         2.201        11.005
  External Outflow .........      2460.428      4226.468       154.456        18.104        93.309
  Flooding Loss ............      1670.242      3052.142        44.318         3.918        23.446
  Exfiltration Loss ........         0.000         0.000         0.000         0.000         0.000
  Mass Reacted .............         0.000         0.000         0.000         0.000         0.000
  Initial Stored Mass ......         0.000         0.000         0.000         0.000         0.000
  Final Stored Mass ........       512.625       881.479        22.850         2.436        13.233
  Continuity Error (%) .....         4.180         4.114         2.007         1.349         1.701
  
  
  *************************
  Highest Continuity Errors
  *************************
  Node JK-storage (-15.25%)
  Node HS02004842 (14.53%)
  Node YS02001884 (10.56%)
  Node WS02006253 (2.82%)
  Node YSB1171 (2.74%)
  
  
  ***************************
  Time-Step Critical Elements
  ***************************
  Link WS02006252WS02006251 (62.27%)
  Link WS02006280WS02006229 (9.93%)
  Link WS02004404WS02004405 (5.70%)
  Link YS02001793JiankangQianchi (4.59%)
  Link WS02006238WS02006235 (2.10%)
  
  
  ********************************
  Highest Flow Instability Indexes
  ********************************
  Link YS02163301YS02001633 (41)
  Link YS02001619YS02001622 (41)
  Link YS02001629YS02163301 (41)
  Link YS02163601YS02164001 (41)
  Link YS02164001YS02001641 (36)
  
  
  *************************
  Routing Time Step Summary
  *************************
  Minimum Time Step           :     0.50 sec
  Average Time Step           :     1.15 sec
  Maximum Time Step           :     5.00 sec
  Percent in Steady State     :    -0.00
  Average Iterations per Step :     4.55
  Percent Not Converging      :    22.00
  
  
  ***************************
  Subcatchment Runoff Summary
  ***************************
  
  ------------------------------------------------------------------------------------------------------------------------------
                            Total      Total      Total      Total     Imperv       Perv      Total       Total     Peak  Runoff
                           Precip      Runon       Evap      Infil     Runoff     Runoff     Runoff      Runoff   Runoff   Coeff
  Subcatchment                 mm         mm         mm         mm         mm         mm         mm    10^6 ltr      LPS
  ------------------------------------------------------------------------------------------------------------------------------
  sub0                      12.16       0.00       0.00       0.65      11.27       0.20      11.47        0.01     1.99   0.943
  sub1                      12.16       0.00       0.00       1.12      10.73       0.22      10.95        0.07    14.96   0.900
  sub2                      12.16       0.00       0.00       4.23       7.58       0.27       7.85        0.07    15.08   0.646
  sub3                      12.16       0.00       0.00       4.29       7.54       0.21       7.75        0.17    34.61   0.637
  sub4                      12.16       0.00       0.00       1.19      10.57       0.14      10.71        0.22    42.34   0.881
  sub5                      12.16       0.00       0.00       0.69      11.21       0.16      11.38        0.13    26.18   0.935
  sub7                      12.16       0.00       0.00       0.88      11.01       0.22      11.22        0.04     7.95   0.923
  sub8                      12.16       0.00       0.00       0.89      11.00       0.21      11.20        0.07    14.89   0.921
  sub9                      12.16       0.00       0.00       0.89      10.99       0.21      11.20        0.05    11.18   0.921
  sub10                     12.16       0.00       0.00       0.79      11.10       0.18      11.28        0.12    25.49   0.928
  sub11                     12.16       0.00       0.00       0.78      11.12       0.19      11.31        0.13    27.35   0.930
  sub12                     12.16       0.00       0.00       1.27      10.53       0.31      10.85        0.09    20.52   0.892
  sub14                     12.16       0.00       0.00       0.89      10.99       0.20      11.20        0.11    22.08   0.920
  sub15                     12.16       0.00       0.00       3.28       8.45       0.37       8.82        0.15    32.49   0.725
  sub16                     12.16       0.00       0.00       3.51       8.11       0.50       8.61        0.09    20.36   0.708
  sub17                     12.16       0.00       0.00       3.41       8.23       0.48       8.71        0.07    16.72   0.716
  sub22                     12.16       0.00       0.00       4.80       6.89       0.43       7.32        0.46   102.62   0.602
  sub23                     12.16       0.00       0.00       4.05       7.62       0.45       8.07        0.38    85.35   0.663
  sub60                     12.16       0.00       0.00       1.42       8.82       0.04       8.86        2.69   336.84   0.729
  sub61                     12.16       0.00       0.00       2.01       8.94       0.06       9.00        2.78   399.45   0.740
  sub62                     12.16       0.00       0.00       0.92       9.73       0.05       9.78        3.01   415.79   0.804
  sub63                     12.16       0.00       0.00       3.46       7.82       0.06       7.88        2.39   361.21   0.648
  sub64                     12.16       0.00       0.00       1.78       8.47       0.04       8.51        2.59   320.97   0.699
  sub65                     12.16       0.00       0.00       1.54       8.61       0.04       8.65        2.66   326.54   0.711
  sub66                     12.16       0.00       0.00       3.49       7.26       0.04       7.30        2.24   290.53   0.600
  sub67                     12.16       0.00       0.00       0.91      10.24       0.07      10.31        3.18   494.23   0.848
  sub68                     12.16       0.00       0.00       1.64       9.40       0.06       9.46        2.91   432.52   0.778
  sub69                     12.16       0.00       0.00       1.73       9.72       0.09       9.82        2.29   383.95   0.807
  sub70                     12.16      10.02       0.00       6.98      13.09       0.56      13.65        3.12   394.93   0.615
  sub71                     12.16       0.00       0.00       0.93       9.48       0.05       9.53        2.25   296.34   0.783
  sub72                     12.16       0.00       0.00       0.83       7.62       0.02       7.64        1.56   151.13   0.628
  1                         12.16      13.29       0.00       1.37      14.63       3.94      18.57        4.36   399.24   0.730
  2                         12.16       0.00       0.00       3.02       2.89       1.65       4.55        1.82   245.52   0.374
  
  
  ****************************
  Subcatchment Washoff Summary
  ****************************
  
  ------------------------------------------------------------------------------------------
                                 COD            SS            TN            TP         NH4-N
  Subcatchment                    kg            kg            kg            kg            kg
  ------------------------------------------------------------------------------------------
  sub0                         2.176         4.147         0.037         0.003         0.018
  sub1                         9.268        18.138         0.173         0.012         0.083
  sub2                         5.563        10.570         0.119         0.008         0.054
  sub3                        13.747        25.918         0.288         0.019         0.132
  sub4                        21.530        42.606         0.429         0.026         0.205
  sub5                        21.300        41.103         0.378         0.029         0.183
  sub7                         4.748         9.424         0.090         0.006         0.043
  sub8                         7.142        14.500         0.143         0.008         0.069
  sub9                         6.100        12.212         0.118         0.007         0.057
  sub10                       17.532        34.266         0.321         0.023         0.155
  sub11                       17.086        33.770         0.320         0.022         0.154
  sub12                       14.392        27.890         0.260         0.019         0.125
  sub14                       13.021        25.823         0.247         0.016         0.119
  sub15                       16.182        30.744         0.313         0.023         0.146
  sub16                       10.318        19.555         0.197         0.015         0.092
  sub17                        9.471        17.789         0.175         0.014         0.082
  sub22                       48.821        90.813         0.932         0.070         0.434
  sub23                       29.138        56.181         0.627         0.041         0.287
  sub60                      203.702       376.193         4.083         0.248         1.956
  sub61                      251.299       461.578         4.699         0.320         2.261
  sub62                      262.761       491.325         5.157         0.324         2.474
  sub63                      185.046       334.593         3.739         0.261         1.731
  sub64                      253.866       452.093         4.687         0.339         2.235
  sub65                      260.104       465.190         4.834         0.344         2.309
  sub66                      146.558       263.077         3.037         0.197         1.417
  sub67                      388.204       718.565         6.963         0.510         3.363
  sub68                      276.713       513.392         5.318         0.356         2.539
  sub69                      247.675       464.012         4.658         0.325         2.225
  sub70                      413.253       778.338         8.287         0.572         3.877
  sub71                      173.740       327.841         3.597         0.206         1.720
  sub72                      136.327       239.314         2.558         0.174         1.230
  1                          280.717       531.705         5.751         0.398         2.660
  2                           35.484        61.811         1.030         0.062         0.437
  ------------------------------------------------------------------------------------------
  System                    3782.985      6994.474        73.565         4.996        34.873
  
  
  ******************
  Node Depth Summary
  ******************
  
  ---------------------------------------------------------------------------------
                                 Average  Maximum  Maximum  Time of Max    Reported
                                   Depth    Depth      HGL   Occurrence   Max Depth
  Node                 Type       Meters   Meters   Meters  days hr:min      Meters
  ---------------------------------------------------------------------------------
  WS02001211           JUNCTION     0.78     0.83     5.67     0  03:07        0.83
  WS02001212           JUNCTION     0.49     0.56     5.62     0  03:07        0.56
  WS02001213           JUNCTION     0.73     0.83     5.59     0  03:06        0.83
  WS02003069           JUNCTION     0.54     0.69     5.27     0  03:06        0.69
  WS02003072           JUNCTION     0.60     0.73     5.10     0  03:06        0.73
  WS02003073           JUNCTION     0.36     0.46     4.52     0  03:07        0.46
  WS02003060           JUNCTION     0.47     0.60     5.54     0  03:05        0.60
  WS02003066           JUNCTION     0.26     0.36     5.92     0  03:05        0.36
  WS02003059           JUNCTION     0.78     0.88     5.57     0  03:06        0.88
  WS02003067           JUNCTION     0.62     0.79     6.11     0  03:04        0.79
  WS02004401           JUNCTION     0.76     1.14     7.14     0  03:03        1.13
  WS02004402           JUNCTION     0.79     1.14     7.10     0  03:03        1.13
  WS02004403           JUNCTION     0.81     1.13     7.06     0  03:03        1.12
  WS02004404           JUNCTION     0.88     1.18     7.03     0  03:03        1.17
  WS02004406           JUNCTION     0.87     1.12     6.95     0  03:02        1.11
  WS02004409           JUNCTION     0.58     0.87     6.64     0  03:04        0.87
  WS02004410           JUNCTION     0.59     0.87     6.59     0  03:04        0.87
  WS02004411           JUNCTION     0.60     0.86     6.54     0  03:04        0.86
  WS02004412           JUNCTION     0.61     0.85     6.49     0  03:04        0.85
  WS02004413           JUNCTION     0.76     0.98     6.45     0  03:04        0.98
  WS02004405           JUNCTION     0.87     1.16     7.01     0  03:02        1.15
  WS02006109           JUNCTION     0.87     1.31     7.93     0  03:02        1.30
  WS02006110           JUNCTION     0.83     1.15     7.74     0  03:02        1.14
  WS02006111           JUNCTION     0.27     0.65     7.36     0  03:03        0.65
  WS02006112           JUNCTION     0.95     1.42     7.30     0  03:03        1.41
  WS02006113           JUNCTION     0.40     0.65     7.54     0  03:03        0.65
  WS02006115           JUNCTION     0.67     1.09     7.23     0  03:03        1.09
  WS02006116           JUNCTION     0.74     1.14     7.18     0  03:03        1.14
  WS02006230           JUNCTION     0.91     1.52     8.27     0  03:02        1.51
  WS02006231           JUNCTION     0.65     1.22     8.34     0  03:01        1.20
  WS02006232           JUNCTION     0.81     1.37     8.41     0  03:02        1.36
  WS02006234           JUNCTION     0.76     1.32     8.47     0  03:02        1.31
  WS02006235           JUNCTION     0.81     1.37     8.53     0  03:01        1.35
  WS02006238           JUNCTION     0.84     1.39     8.53     0  03:03        1.38
  WS02006240           JUNCTION     0.76     1.29     8.58     0  02:31        1.28
  WS02006242           JUNCTION     0.83     1.34     8.61     0  02:31        1.33
  WS02006243           JUNCTION     0.72     1.21     8.63     0  03:01        1.20
  WS02006245           JUNCTION     0.70     1.17     8.66     0  02:31        1.16
  WS02006247           JUNCTION     0.71     1.17     8.67     0  03:00        1.17
  WS02006248           JUNCTION     0.66     1.10     8.68     0  01:51        1.09
  WS02006249           JUNCTION     0.68     1.09     8.69     0  01:51        1.09
  WS02006239           JUNCTION     0.81     1.35     8.56     0  03:02        1.34
  WS02006251           JUNCTION     0.67     1.46     9.13     0  01:51        1.20
  WS02006252           JUNCTION     0.45     1.03     9.28     0  01:51        0.74
  WS02006253           JUNCTION     0.70     1.56     9.21     0  01:51        1.25
  WS02006256           JUNCTION     1.74     2.35     9.28     0  00:00        2.35
  WS02004138           JUNCTION     0.19     0.20     7.45     0  00:00        0.19
  WS02004139           JUNCTION     0.72     0.77     5.68     0  03:08        0.77
  WS02004407           JUNCTION     0.26     0.37     6.68     0  03:03        0.37
  WS02006228           JUNCTION     0.89     1.44     8.09     0  03:01        1.43
  WS02006229           JUNCTION     0.88     1.49     8.18     0  03:02        1.48
  WS02006280           JUNCTION     0.07     0.20     8.47     0  03:02        0.20
  WS02006284           JUNCTION     0.37     0.56     8.96     0  03:02        0.56
  WS02006287           JUNCTION     0.10     0.30     9.25     0  03:01        0.30
  WSF200               JUNCTION     0.26     0.40     5.64     0  03:05        0.40
  HS02004901           JUNCTION     0.12     0.29    10.12     0  03:01        0.29
  HS02004881           JUNCTION     0.01     0.04     9.07     0  03:01        0.04
  HS02004876           JUNCTION     0.04     0.12     9.15     0  03:01        0.12
  HS02004870           JUNCTION     0.01     0.07     9.35     0  03:01        0.07
  HS02004862           JUNCTION     0.02     0.08     9.46     0  03:01        0.08
  HS02004856           JUNCTION     0.08     0.13     9.55     0  03:01        0.13
  HS02004852           JUNCTION     0.01     0.05     9.56     0  03:01        0.05
  HS02004848           JUNCTION     0.01     0.05     9.65     0  03:01        0.05
  HS02004842           JUNCTION     0.33     0.38     9.65     0  03:01        0.38
  HS02004837           JUNCTION     0.03     0.07     9.65     0  03:01        0.07
  HS02004830           JUNCTION     0.04     0.08     9.55     0  03:01        0.08
  HS02004824           JUNCTION     0.02     0.06     9.47     0  03:01        0.06
  HS02004817           JUNCTION     0.44     0.61     9.45     0  03:01        0.61
  HS02004807           JUNCTION     0.13     0.28     9.45     0  03:01        0.28
  HS02004802           JUNCTION     0.16     0.31     9.44     0  03:01        0.31
  HS02004799           JUNCTION     0.12     0.35     9.56     0  03:01        0.35
  HS02004792           JUNCTION     0.03     0.15     9.67     0  03:01        0.15
  HS02004788           JUNCTION     0.03     0.11    10.01     0  03:01        0.11
  HS02004785           JUNCTION     0.05     0.18    10.09     0  03:01        0.18
  HS02004777           JUNCTION     0.15     0.31    10.11     0  03:01        0.31
  HS02004770           JUNCTION     0.12     0.29    10.12     0  03:01        0.29
  HS02004480           JUNCTION     0.08     0.28     9.52     0  03:01        0.28
  HS02004479           JUNCTION     0.12     0.32     9.52     0  03:01        0.32
  HS02004478           JUNCTION     0.06     0.20     9.42     0  03:01        0.20
  YS02001745           JUNCTION     0.70     0.87     8.39     0  03:15        0.87
  YS02001748           JUNCTION     1.10     2.05     9.13     0  02:35        1.31
  YS02001751           JUNCTION     1.28     2.00     8.88     0  02:35        1.52
  YS02001754           JUNCTION     1.54     1.98     8.59     0  02:35        1.80
  YS02001762           JUNCTION     1.74     2.04     8.44     0  03:18        2.01
  YS02001765           JUNCTION     1.69     1.98     8.43     0  03:18        1.96
  YS02001767           JUNCTION     1.66     1.93     8.42     0  03:18        1.92
  YS02001770           JUNCTION     1.65     1.91     8.41     0  03:18        1.90
  YS02001774           JUNCTION     1.72     1.97     8.39     0  03:18        1.96
  YS02001779           JUNCTION     1.47     1.68     8.37     0  02:35        1.68
  YS02001882           JUNCTION     0.50     1.62     8.33     0  02:59        1.61
  YS02001884           JUNCTION     0.60     1.72     8.34     0  03:00        1.71
  YS02001759           JUNCTION     1.77     2.07     8.43     0  03:18        2.05
  YS02001887           JUNCTION     0.68     1.80     8.34     0  03:00        1.79
  YS02001890           JUNCTION     0.71     1.81     8.32     0  02:55        1.80
  YS02001898           JUNCTION     0.47     1.56     8.29     0  03:00        1.55
  YS02001901           JUNCTION     0.59     1.67     8.28     0  03:00        1.67
  YS02001904           JUNCTION     0.57     1.64     8.27     0  02:58        1.63
  YS02001907           JUNCTION     0.90     1.96     8.25     0  02:46        1.96
  YS02001910           JUNCTION     0.69     1.77     8.28     0  02:47        1.76
  YS02001915           JUNCTION     0.49     1.58     8.29     0  02:48        1.57
  YS02001918           JUNCTION     0.23     1.23     8.30     0  02:48        1.23
  YS02001619           JUNCTION     1.25     1.61     8.54     0  02:35        1.47
  YS02001629           JUNCTION     1.61     1.85     8.40     0  02:33        1.84
  YS02001641           JUNCTION     1.71     1.94     8.37     0  03:27        1.93
  YS02001644           JUNCTION     1.71     1.92     8.35     0  02:43        1.92
  YS02001652           JUNCTION     1.55     2.10     8.70     0  03:48        1.90
  YS02001655           JUNCTION     1.31     2.04     8.89     0  03:34        1.76
  YS02001920           JUNCTION     0.34     1.31     8.31     0  02:48        1.30
  YS02001923           JUNCTION     0.18     1.06     8.32     0  02:48        1.06
  YS02001926           JUNCTION     0.25     0.88     8.32     0  02:48        0.87
  YS02001929           JUNCTION     0.14     0.63     8.33     0  02:48        0.63
  YS02001658           JUNCTION     1.04     2.00     9.14     0  03:34        1.71
  YS02001661           JUNCTION     0.81     2.35     9.75     0  03:50        1.78
  YS02001664           JUNCTION     0.36     0.58     8.50     0  03:41        0.57
  YS02001622           JUNCTION     1.27     1.62     8.52     0  02:35        1.50
  YS02001633           JUNCTION     1.70     1.94     8.40     0  02:48        1.94
  YS02001649           JUNCTION     1.75     2.05     8.44     0  02:50        2.05
  YS02001757           JUNCTION     1.87     2.17     8.43     0  03:46        2.15
  YS02001895           JUNCTION     0.47     1.56     8.31     0  03:01        1.55
  YS02001625           JUNCTION     1.56     1.78     8.38     0  02:33        1.78
  YS02163301           JUNCTION     1.64     1.88     8.40     0  03:19        1.88
  YS02163601           JUNCTION     1.75     1.99     8.38     0  03:19        1.98
  YS02164001           JUNCTION     1.69     1.92     8.37     0  02:55        1.91
  YS02001647           JUNCTION     1.54     1.80     8.41     0  03:38        1.79
  YSB1154              JUNCTION     0.26     0.47     9.52     0  03:01        0.47
  YSB6556              JUNCTION     0.15     0.35     9.52     0  03:01        0.35
  YSB1174              JUNCTION     0.21     0.41     9.52     0  03:01        0.41
  YSB1171              JUNCTION     0.41     0.62     9.52     0  03:01        0.62
  YS02006553           JUNCTION     0.90     1.96     8.25     0  02:58        1.96
  YS02006561           JUNCTION     0.27     1.06     7.72     0  02:58        1.05
  YS02006556           JUNCTION     0.87     1.92     8.23     0  03:00        1.91
  YS02006558           JUNCTION     0.91     1.96     8.23     0  02:59        1.96
  YS02001783           JUNCTION     0.49     2.40     8.54     0  02:26        1.44
  YS02001784           JUNCTION     0.51     1.87     7.94     0  02:26        1.38
  YS02001786           JUNCTION     0.45     1.77     7.80     0  02:26        1.22
  YS02001788           JUNCTION     0.38     1.77     7.75     0  02:26        1.08
  YS02001790           JUNCTION     0.49     1.96     7.60     0  02:25        1.24
  YS02001791           JUNCTION     0.44     2.69     8.16     0  02:25        1.23
  YS02001793           JUNCTION     0.58     2.05     6.89     0  02:25        1.79
  WSC                  OUTFALL      0.36     0.46     1.13     0  03:07        0.46
  JK-storage           STORAGE      2.45     5.80     6.60     0  02:26        5.80
  CC-storage           STORAGE      1.11     1.37     8.37     0  04:42        1.37
  XR-storage           STORAGE      6.52     7.72     5.72     0  02:57        7.72
  
  
  *******************
  Node Inflow Summary
  *******************
  
  -------------------------------------------------------------------------------------------------
                                  Maximum  Maximum                  Lateral       Total        Flow
                                  Lateral    Total  Time of Max      Inflow      Inflow     Balance
                                   Inflow   Inflow   Occurrence      Volume      Volume       Error
  Node                 Type           LPS      LPS  days hr:min    10^6 ltr    10^6 ltr     Percent
  -------------------------------------------------------------------------------------------------
  WS02001211           JUNCTION      7.35   389.60     0  04:38       0.207        10.1       0.405
  WS02001212           JUNCTION      0.00   391.75     0  04:38           0        10.1       0.247
  WS02001213           JUNCTION      0.00   393.77     0  04:37           0        10.1       0.293
  WS02003069           JUNCTION      0.32  1232.24     0  03:05     0.00902        21.5       0.179
  WS02003072           JUNCTION      0.00  1232.13     0  03:06           0        21.5       0.210
  WS02003073           JUNCTION      1.82  1233.91     0  03:07      0.0513        21.5       0.245
  WS02003060           JUNCTION     16.53  1231.98     0  03:05       0.466        21.6       0.168
  WS02003066           JUNCTION      0.00   829.99     0  03:05           0        11.1       0.049
  WS02003059           JUNCTION      0.00   396.89     0  04:37           0          10       0.411
  WS02003067           JUNCTION      0.00   829.86     0  03:04           0        11.1       0.095
  WS02004401           JUNCTION      0.00   831.58     0  03:03           0        11.4       0.218
  WS02004402           JUNCTION      0.00   832.17     0  03:03           0        11.4       0.201
  WS02004403           JUNCTION      0.00   831.90     0  03:03           0        11.3       0.183
  WS02004404           JUNCTION      0.16   831.79     0  03:03     0.00457        11.3       0.131
  WS02004406           JUNCTION      0.00   831.37     0  03:03           0        11.3       0.324
  WS02004409           JUNCTION      0.00   830.71     0  03:03           0        11.2       0.181
  WS02004410           JUNCTION      0.00   830.21     0  03:03           0        11.2       0.201
  WS02004411           JUNCTION      0.00   830.00     0  03:04           0        11.2       0.202
  WS02004412           JUNCTION      0.00   829.88     0  03:04           0        11.2       0.213
  WS02004413           JUNCTION      0.00   829.83     0  03:04           0        11.1       0.309
  WS02004405           JUNCTION      0.04   832.48     0  03:03     0.00107        11.3       0.203
  WS02006109           JUNCTION      1.23   818.54     0  03:02      0.0347        11.4       0.190
  WS02006110           JUNCTION      0.00   818.31     0  03:02           0        11.4       0.193
  WS02006111           JUNCTION      0.00   817.49     0  03:02           0        11.4       0.042
  WS02006112           JUNCTION     16.72   830.89     0  03:03      0.0747        11.5       0.265
  WS02006113           JUNCTION      0.00   818.47     0  03:02           0        11.4       0.111
  WS02006115           JUNCTION      0.00   830.58     0  03:03           0        11.4       0.217
  WS02006116           JUNCTION      0.00   831.26     0  03:03           0        11.4       0.206
  WS02006230           JUNCTION     10.28   532.87     0  06:53        0.29        9.29       0.183
  WS02006231           JUNCTION      0.00   522.60     0  06:49           0        9.01       0.143
  WS02006232           JUNCTION      0.00   522.62     0  06:48           0        9.03       0.205
  WS02006234           JUNCTION      0.00   523.09     0  06:53           0        9.04       0.122
  WS02006235           JUNCTION      0.00   523.77     0  06:52           0        9.07       0.133
  WS02006238           JUNCTION      0.00   419.69     0  07:30           0        5.93       0.080
  WS02006240           JUNCTION      0.00   417.77     0  07:30           0        5.94       0.286
  WS02006242           JUNCTION      0.00   417.47     0  07:30           0        5.95       0.323
  WS02006243           JUNCTION      0.00   417.25     0  07:30           0        5.95       0.176
  WS02006245           JUNCTION      0.00   417.06     0  07:30           0        5.97       0.253
  WS02006247           JUNCTION      0.00   420.73     0  01:48           0        5.98       0.194
  WS02006248           JUNCTION      0.00   426.60     0  01:48           0        5.99       0.151
  WS02006249           JUNCTION      0.00   486.27     0  03:00           0        7.29       0.227
  WS02006239           JUNCTION      0.00   418.71     0  07:30           0        5.93       0.174
  WS02006251           JUNCTION      0.08   487.07     0  03:00     0.00217        7.35       0.238
  WS02006252           JUNCTION      0.00   400.00     0  01:45           0         6.9       0.009
  WS02006253           JUNCTION      1.99   130.40     0  01:51     0.00928       0.461       2.900
  WS02006256           JUNCTION      0.00   983.00     0  00:00           0        10.4      -0.008
  WS02004138           JUNCTION      0.00   380.00     0  00:00           0        9.98       0.064
  WS02004139           JUNCTION      0.32   396.51     0  00:00     0.00905        9.98       0.459
  WS02004407           JUNCTION      0.00   831.17     0  03:03           0        11.2       0.080
  WS02006228           JUNCTION      0.00   817.31     0  03:02           0        11.4       0.147
  WS02006229           JUNCTION      0.00   817.39     0  03:02           0        11.4       0.123
  WS02006280           JUNCTION      0.00   413.61     0  03:02           0        2.17       0.003
  WS02006284           JUNCTION      0.10   413.56     0  03:02      0.0027        2.17       0.041
  WS02006287           JUNCTION      0.00   413.21     0  03:01           0        2.17       0.033
  WSF200               JUNCTION      0.00   830.04     0  03:05           0        11.1       0.048
  HS02004901           JUNCTION     20.36    20.36     0  03:01      0.0902      0.0904       1.990
  HS02004881           JUNCTION      7.95    84.19     0  03:01      0.0378        0.41       0.076
  HS02004876           JUNCTION     14.96    76.75     0  03:01      0.0728       0.373       0.148
  HS02004870           JUNCTION     14.89    62.15     0  03:01      0.0716         0.3       0.037
  HS02004862           JUNCTION     15.28    47.68     0  03:01      0.0788       0.229       0.077
  HS02004856           JUNCTION     11.18    32.72     0  03:01      0.0539       0.152       0.963
  HS02004852           JUNCTION      0.00    21.94     0  03:01           0      0.0979       0.059
  HS02004848           JUNCTION     34.61    34.61     0  03:01       0.174       0.174       0.028
  HS02004842           JUNCTION      0.00    12.41     0  03:01           0      0.0895      16.997
  HS02004837           JUNCTION     31.84    43.95     0  03:01       0.303        0.38       0.215
  HS02004830           JUNCTION      0.15    43.86     0  03:01     0.00423        0.37       0.334
  HS02004824           JUNCTION     42.39    85.90     0  03:01       0.225       0.594       0.091
  HS02004817           JUNCTION      0.60    86.28     0  03:01      0.0169        0.61       2.809
  HS02004807           JUNCTION     27.35   112.31     0  03:01       0.131       0.726       0.604
  HS02004802           JUNCTION      0.00   111.36     0  03:01           0       0.723       0.549
  HS02004799           JUNCTION     22.08   258.93     0  03:01       0.107        1.24       0.223
  HS02004792           JUNCTION    102.90   237.99     0  03:01        0.47        1.14       0.036
  HS02004788           JUNCTION     34.16   135.92     0  03:01       0.199       0.669       0.059
  HS02004785           JUNCTION      0.15   103.52     0  03:01     0.00423       0.471       0.106
  HS02004777           JUNCTION      0.03   104.16     0  03:01    0.000846       0.472       1.115
  HS02004770           JUNCTION     85.35   105.11     0  03:01       0.385       0.473       0.659
  HS02004480           JUNCTION      0.00   302.44     0  03:01           0        1.46       0.076
  HS02004479           JUNCTION      0.00    44.90     0  03:02           0       0.232       0.317
  HS02004478           JUNCTION      0.00   413.07     0  03:01           0        2.17       0.014
  YS02001745           JUNCTION    336.84   415.28     0  02:35        2.69         2.7       0.316
  YS02001748           JUNCTION      0.04   612.63     0  02:35     0.00127        2.69       0.757
  YS02001751           JUNCTION      0.01   364.85     0  02:28     0.00031        2.66       0.876
  YS02001754           JUNCTION      0.26   346.63     0  03:01     0.00733        2.64       0.943
  YS02001762           JUNCTION      0.00   349.88     0  02:49           0        2.02       1.049
  YS02001765           JUNCTION      0.00   350.79     0  02:49           0        2.02       1.202
  YS02001767           JUNCTION      0.54   351.28     0  02:49      0.0151        2.04       1.759
  YS02001770           JUNCTION    415.94   415.94     0  03:01        3.01        3.02       1.055
  YS02001774           JUNCTION      0.00   275.39     0  03:01           0       0.968       2.612
  YS02001779           JUNCTION      0.01   275.77     0  03:01    0.000141       0.935       1.692
  YS02001882           JUNCTION      0.00    27.17     0  02:28           0      0.0211      12.110
  YS02001884           JUNCTION      0.00    58.73     0  02:28           0      0.0593      11.808
  YS02001759           JUNCTION    399.49   686.28     0  02:50        2.78        4.76       0.478
  YS02001887           JUNCTION    494.68   495.47     0  03:01        3.19        3.23       0.269
  YS02001890           JUNCTION      0.00   495.85     0  03:01           0        3.18       0.293
  YS02001898           JUNCTION      0.00   494.80     0  03:00           0        3.16       0.101
  YS02001901           JUNCTION      0.00   495.12     0  03:00           0        3.16       0.223
  YS02001904           JUNCTION      0.00   494.74     0  03:01           0        3.16       0.202
  YS02001907           JUNCTION      0.00   948.30     0  03:01           0        7.02       0.347
  YS02001910           JUNCTION      0.00   456.35     0  03:01           0        3.87       0.308
  YS02001915           JUNCTION    296.36   455.73     0  03:01        2.25        3.88       0.160
  YS02001918           JUNCTION      0.00   211.56     0  03:30           0        1.64       0.131
  YS02001619           JUNCTION    290.53   290.53     0  03:01        2.24        2.24       0.550
  YS02001629           JUNCTION      0.00   214.09     0  02:42           0        1.73       1.680
  YS02001641           JUNCTION      0.00   454.25     0  02:36           0        4.29       0.489
  YS02001644           JUNCTION    321.01   972.30     0  03:20        2.59        8.75       0.298
  YS02001652           JUNCTION      0.00   397.18     0  03:01           0        2.36       0.960
  YS02001655           JUNCTION      0.15   396.04     0  03:01     0.00434        2.38       1.073
  YS02001920           JUNCTION      2.87   189.03     0  03:30      0.0809        1.64       0.178
  YS02001923           JUNCTION      0.04   166.65     0  02:49     0.00106        1.55       0.058
  YS02001926           JUNCTION      0.05   155.59     0  03:02     0.00147        1.56       0.210
  YS02001929           JUNCTION    151.13   151.13     0  03:01        1.56        1.56       0.037
  YS02001658           JUNCTION      0.00   530.15     0  02:34           0         2.4       0.991
  YS02001661           JUNCTION      0.00   680.08     0  02:51           0        2.86      -0.741
  YS02001664           JUNCTION    361.21   361.21     0  03:01        2.38        2.86       0.154
  YS02001622           JUNCTION      0.00   291.10     0  03:01           0        2.22       1.442
  YS02001633           JUNCTION    326.74   452.77     0  02:42        2.66        4.35       0.738
  YS02001649           JUNCTION      0.00   952.62     0  02:43           0         5.5       0.670
  YS02001757           JUNCTION      0.00  1827.76     0  02:44           0        10.9       0.845
  YS02001895           JUNCTION      0.00   495.67     0  03:01           0        3.17       0.166
  YS02001625           JUNCTION      0.00   290.62     0  03:00           0        2.19       1.789
  YS02163301           JUNCTION      0.00   236.16     0  02:34           0        1.71       1.410
  YS02163601           JUNCTION      0.11   452.33     0  02:42      0.0031        4.31       0.693
  YS02164001           JUNCTION      0.00   452.48     0  02:42           0        4.29       0.451
  YS02001647           JUNCTION      0.00   687.35     0  02:43           0        4.27       0.660
  YSB1154              JUNCTION     26.18    26.18     0  03:01       0.129        0.13       1.130
  YSB6556              JUNCTION      0.00    25.82     0  03:01           0        0.13       0.969
  YSB1174              JUNCTION     20.52    20.52     0  03:01      0.0948      0.0953       1.368
  YSB1171              JUNCTION      0.00    45.30     0  03:01           0       0.231       2.821
  YS02006553           JUNCTION      0.00   703.74     0  03:31           0         6.6       0.232
  YS02006561           JUNCTION      0.00  1023.35     0  02:47           0        9.47       0.005
  YS02006556           JUNCTION      0.00   704.25     0  03:31           0         6.6       0.172
  YS02006558           JUNCTION    433.40  1024.33     0  02:47        2.93        9.51       0.059
  YS02001783           JUNCTION      0.00  1023.65     0  02:47           0        9.47       0.023
  YS02001784           JUNCTION      1.06  1024.59     0  02:47      0.0299         9.5       0.038
  YS02001786           JUNCTION      0.06  1024.68     0  02:47     0.00159         9.5       0.037
  YS02001788           JUNCTION      0.07  1025.25     0  02:47       0.002         9.5       0.024
  YS02001790           JUNCTION      0.15  1024.73     0  02:47     0.00437         9.5       0.016
  YS02001791           JUNCTION      0.00  1024.91     0  02:47           0         9.5       0.010
  YS02001793           JUNCTION      0.00  1025.18     0  02:47           0         9.5      -0.006
  WSC                  OUTFALL       0.00  1233.85     0  03:07           0        21.4       0.000
  JK-storage           STORAGE       0.00  1025.19     0  02:47           0        9.65     -13.234
  CC-storage           STORAGE       0.00  1827.50     0  02:44           0        9.97      -0.236
  XR-storage           STORAGE     844.76   844.76     0  03:01        11.8        12.4      -0.001
  
  
  **********************
  Node Surcharge Summary
  **********************
  
  Surcharging occurs when water rises above the top of the highest conduit.
  ---------------------------------------------------------------------
                                               Max. Height   Min. Depth
                                   Hours       Above Crown    Below Rim
  Node                 Type      Surcharged         Meters       Meters
  ---------------------------------------------------------------------
  WS02004401           JUNCTION        1.11          0.137        1.523
  WS02004402           JUNCTION        1.26          0.139        1.601
  WS02004403           JUNCTION        1.32          0.126        1.904
  WS02004404           JUNCTION        1.73          0.177        2.603
  WS02004406           JUNCTION        1.54          0.117        2.333
  WS02004405           JUNCTION        1.62          0.157        2.643
  WS02006109           JUNCTION        4.76          0.491        1.329
  WS02006110           JUNCTION        2.96          0.240        1.610
  WS02006112           JUNCTION        3.30          0.417        1.263
  WS02006115           JUNCTION        0.56          0.079        2.171
  WS02006116           JUNCTION        0.62          0.084        2.206
  WS02006230           JUNCTION        2.83          0.440        1.130
  WS02006231           JUNCTION        3.22          0.509        1.021
  WS02006232           JUNCTION        4.80          0.668        0.812
  WS02006234           JUNCTION        4.43          0.597        0.643
  WS02006235           JUNCTION        4.72          0.660        0.630
  WS02006238           JUNCTION        4.75          0.671        0.759
  WS02006240           JUNCTION        4.59          0.578        0.812
  WS02006242           JUNCTION        4.66          0.608        0.212
  WS02006243           JUNCTION        3.92          0.499        0.271
  WS02006245           JUNCTION        3.73          0.460        0.390
  WS02006247           JUNCTION        3.75          0.463        0.297
  WS02006248           JUNCTION        3.53          0.377        0.003
  WS02006249           JUNCTION        3.58          0.390        0.000
  WS02006239           JUNCTION        4.63          0.611        0.679
  WS02006251           JUNCTION        2.70          0.434        0.746
  WS02006252           JUNCTION        4.06          0.633        0.467
  WS02006253           JUNCTION        2.74          0.523        1.957
  WS02006256           JUNCTION        6.71          2.050        0.000
  WS02006228           JUNCTION        4.75          0.608        1.592
  YS02001748           JUNCTION        5.00          0.969        0.221
  YS02001751           JUNCTION        5.31          0.998        0.202
  YS02001754           JUNCTION        5.46          0.927        0.223
  YS02001762           JUNCTION        5.87          1.036        0.114
  YS02001765           JUNCTION        5.83          0.981        0.119
  YS02001767           JUNCTION        5.66          0.931        0.099
  YS02001770           JUNCTION        5.63          0.884        0.036
  YS02001774           JUNCTION        5.85          0.973        0.077
  YS02001779           JUNCTION        5.46          0.680        0.000
  YS02001882           JUNCTION        0.93          0.618        0.212
  YS02001884           JUNCTION        0.96          0.663        0.207
  YS02001759           JUNCTION        5.89          1.068        0.142
  YS02001887           JUNCTION        1.03          0.749        0.201
  YS02001890           JUNCTION        1.06          0.760        0.000
  YS02001898           JUNCTION        0.89          0.528        0.212
  YS02001901           JUNCTION        1.00          0.674        0.196
  YS02001904           JUNCTION        0.97          0.636        0.214
  YS02001907           JUNCTION        1.77          0.950        0.000
  YS02001910           JUNCTION        1.10          0.770        0.330
  YS02001915           JUNCTION        0.92          0.575        0.425
  YS02001918           JUNCTION        0.70          0.234        0.576
  YS02001619           JUNCTION        5.32          0.610        0.000
  YS02001629           JUNCTION        5.33          0.470        0.000
  YS02001641           JUNCTION        5.84          0.935        0.165
  YS02001644           JUNCTION        5.84          0.920        0.000
  YS02001652           JUNCTION        5.59          1.070        0.060
  YS02001655           JUNCTION        5.35          1.043        0.157
  YS02001920           JUNCTION        0.74          0.307        0.833
  YS02001658           JUNCTION        5.10          0.999        0.301
  YS02001661           JUNCTION        0.21          1.281        0.109
  YS02001622           JUNCTION        5.37          0.620        0.000
  YS02001633           JUNCTION        5.82          0.924        0.136
  YS02001649           JUNCTION        5.87          1.050        0.000
  YS02001757           JUNCTION        5.97          1.166        0.044
  YS02001895           JUNCTION        0.90          0.564        0.186
  YS02001625           JUNCTION        5.60          0.780        0.000
  YS02163301           JUNCTION        5.68          0.880        0.150
  YS02163601           JUNCTION        5.87          0.987        0.093
  YS02164001           JUNCTION        5.83          0.915        0.185
  YS02001647           JUNCTION        5.59          0.800        0.100
  YS02006553           JUNCTION        1.84          0.964        0.226
  YS02006561           JUNCTION        0.74          0.260        0.890
  YS02006556           JUNCTION        1.32          0.882        0.468
  YS02006558           JUNCTION        1.29          0.859        0.541
  YS02001783           JUNCTION        1.18          1.600        0.000
  YS02001784           JUNCTION        1.16          1.072        0.418
  YS02001786           JUNCTION        1.10          0.969        0.461
  YS02001788           JUNCTION        1.05          0.973        0.507
  YS02001790           JUNCTION        1.69          1.157        0.000
  YS02001791           JUNCTION        1.79          1.887        0.033
  YS02001793           JUNCTION        2.04          1.054        1.546
  
  
  *********************
  Node Flooding Summary
  *********************
  
  Flooding refers to all water that overflows a node, whether it ponds or not.
  --------------------------------------------------------------------------
                                                             Total   Maximum
                                 Maximum   Time of Max       Flood    Ponded
                        Hours       Rate    Occurrence      Volume     Depth
  Node                 Flooded       LPS   days hr:min    10^6 ltr    Meters
  --------------------------------------------------------------------------
  WS02006249              2.64    264.38      0  03:01       1.285     0.000
  WS02006256              4.17    978.40      0  00:00       7.276     0.000
  YS02001779              2.44    275.34      0  03:01       0.912     0.000
  YS02001890              0.01      1.86      0  02:57       0.000     0.000
  YS02001907              0.55    399.17      0  03:01       0.410     0.000
  YS02001619              0.01     15.93      0  02:35       0.000     0.000
  YS02001629              0.01     23.13      0  02:33       0.000     0.000
  YS02001644              3.88    971.99      0  03:20       6.344     0.000
  YS02001622              0.01     11.09      0  02:35       0.000     0.000
  YS02001649              0.04     29.39      0  03:50       0.001     0.000
  YS02001625              1.08    235.37      0  03:01       0.426     0.000
  YS02001783              0.01    185.77      0  02:26       0.000     0.000
  YS02001790              0.01    301.08      0  02:25       0.000     0.000
  JK-storage              0.56    707.45      0  02:30       0.572     0.000
  XR-storage              3.02    464.68      0  03:01       1.818     0.000
  
  
  **********************
  Storage Volume Summary
  **********************
  
  --------------------------------------------------------------------------------------------------
                         Average     Avg  Evap Exfil       Maximum     Max    Time of Max    Maximum
                          Volume    Pcnt  Pcnt  Pcnt        Volume    Pcnt     Occurrence    Outflow
  Storage Unit           1000 m3    Full  Loss  Loss       1000 m3    Full    days hr:min        LPS
  --------------------------------------------------------------------------------------------------
  JK-storage               0.123      42     0     0         0.291     100       0  02:26     983.00
  CC-storage               3.081      20     0     0         3.831      24       0  04:42     400.00
  XR-storage               0.782      84     0     0         0.926     100       0  02:57     380.00
  
  
  ***********************
  Outfall Loading Summary
  ***********************
  
  ---------------------------------------------------------------------------------------------------------------------------------
                         Flow       Avg       Max       Total         Total         Total         Total         Total         Total
                         Freq      Flow      Flow      Volume           COD            SS            TN            TP         NH4-N
  Outfall Node           Pcnt       LPS       LPS    10^6 ltr            kg            kg            kg            kg            kg
  ---------------------------------------------------------------------------------------------------------------------------------
  WSC                   99.98    828.66   1233.85      21.449      2460.583      4226.728       154.467        18.105        93.316
  ---------------------------------------------------------------------------------------------------------------------------------
  System                99.98    828.66   1233.85      21.449      2460.583      4226.728       154.467        18.105        93.316
  
  
  ********************
  Link Flow Summary
  ********************
  
  -----------------------------------------------------------------------------
                                 Maximum  Time of Max   Maximum    Max/    Max/
                                  |Flow|   Occurrence   |Veloc|    Full    Full
  Link                 Type          LPS  days hr:min     m/sec    Flow   Depth
  -----------------------------------------------------------------------------
  WS02003066WSF200     CONDUIT    830.04     0  03:05      2.96    0.14    0.30
  WS02006287WS02006284 CONDUIT    413.46     0  03:02      2.04    0.19    0.30
  WS02006284WS02006280 CONDUIT    413.61     0  03:02      2.28    0.17    0.28
  WS02006280WS02006229 CONDUIT    413.61     0  03:02      3.39    0.09    0.25
  WS02006229WS02006228 CONDUIT    817.31     0  03:02      1.63    2.71    1.00
  WS02006256WS02006235 CONDUIT    288.60     0  00:00      4.23    3.05    1.00
  WS02006253WS02006251 CONDUIT     93.97     0  04:59      0.47    0.28    1.00
  WS02006252WS02006251 CONDUIT    405.33     0  01:51      3.23    1.49    1.00
  WS02006251WS02006249 CONDUIT    486.27     0  03:00      1.26    1.40    1.00
  WS02006249WS02006248 CONDUIT    426.60     0  01:48      1.25    2.34    1.00
  WS02006248WS02006247 CONDUIT    420.73     0  01:48      1.22    0.92    1.00
  WS02006247WS02006245 CONDUIT    417.06     0  07:30      1.21    3.31    1.00
  WS02006245WS02006243 CONDUIT    417.25     0  07:30      1.28    1.23    1.00
  WS02006243WS02006242 CONDUIT    417.47     0  07:30      1.15    0.89    1.00
  WS02006242WS02006240 CONDUIT    417.77     0  07:30      1.09    1.66    1.00
  WS02006240WS02006239 CONDUIT    418.71     0  07:30      1.18    1.32    1.00
  WS02006239WS02006238 CONDUIT    419.69     0  07:30      1.09    1.34    1.00
  WS02006238WS02006235 CONDUIT    420.39     0  07:30      1.46    0.94    1.00
  WS02006235WS02006234 CONDUIT    523.09     0  06:53      1.36    5.52    1.00
  WS02006234WS02006232 CONDUIT    522.62     0  06:48      1.39    1.06    1.00
  WS02006232WS02006231 CONDUIT    522.60     0  06:49      1.36    1.10    1.00
  WS02006231WS02006230 CONDUIT    522.59     0  06:53      1.37    7.93    1.00
  WS02006230WS02006229 CONDUIT    533.64     0  06:39      1.39   11.88    1.00
  WS02006228WS02006109 CONDUIT    817.31     0  03:02      1.63    3.57    1.00
  WS02006116WS02004401 CONDUIT    831.58     0  03:03      1.06    1.15    1.00
  WS02006115WS02006116 CONDUIT    831.26     0  03:03      1.09    1.07    1.00
  WS02006113WS02006111 CONDUIT    817.49     0  03:02      2.68    0.98    0.81
  WS02006112WS02006115 CONDUIT    830.58     0  03:03      1.06    0.49    1.00
  WS02006111WS02006112 CONDUIT    818.33     0  03:03      1.86    0.39    0.90
  WS02006110WS02006113 CONDUIT    818.47     0  03:02      1.71    0.74    0.90
  WS02006109WS02006110 CONDUIT    818.31     0  03:02      1.63    1.57    1.00
  WS02004411WS02004412 CONDUIT    829.88     0  03:04      1.16    1.18    0.85
  WS02004401WS02004402 CONDUIT    832.17     0  03:03      1.06    1.00    1.00
  WS02004413WS02003067 CONDUIT    829.86     0  03:04      1.42    0.36    0.70
  WS02004412WS02004413 CONDUIT    829.83     0  03:04      1.10    0.56    0.91
  WS02004410WS02004411 CONDUIT    830.00     0  03:04      1.15    1.13    0.86
  WS02004409WS02004410 CONDUIT    830.21     0  03:03      1.15    1.07    0.87
  WS02004407WS02004409 CONDUIT    830.71     0  03:03      1.65    0.29    0.62
  WS02004406WS02004407 CONDUIT    831.17     0  03:03      1.45    0.37    0.69
  WS02004405WS02004406 CONDUIT    831.37     0  03:03      1.06    1.64    1.00
  WS02004404WS02004405 CONDUIT    832.44     0  03:03      1.06    8.16    1.00
  WS02004403WS02004404 CONDUIT    831.63     0  03:03      1.06    0.60    1.00
  WS02004402WS02004403 CONDUIT    831.90     0  03:03      1.06    1.20    1.00
  WS02004139WS02001211 CONDUIT    382.25     0  04:38      0.90    0.48    0.63
  WS02004138WS02004139 CONDUIT    396.19     0  00:00      3.65    0.08    0.46
  WS02003067WS02003066 CONDUIT    829.99     0  03:05      1.54    0.27    0.48
  WS02001213WS02003059 CONDUIT    396.89     0  04:37      0.88    0.65    0.85
  WS02001212WS02001213 CONDUIT    393.77     0  04:37      1.32    0.61    0.53
  WS02001211WS02001212 CONDUIT    391.75     0  04:38      0.78    0.30    0.69
  WS02003072WS02003073 CONDUIT   1232.09     0  03:07      1.90    2.66    0.56
  WS02003069WS02003072 CONDUIT   1232.13     0  03:06      1.77    0.59    0.59
  WS02003060WS02003069 CONDUIT   1231.92     0  03:05      1.99    0.48    0.54
  WS02003059WS02003060 CONDUIT    400.75     0  04:36      0.95    0.26    0.74
  HS02004901HS02004770 CONDUIT     20.52     0  03:01      0.07    0.08    0.42
  HS02004876HS02004881 CONDUIT     76.54     0  03:01      0.95    0.81    0.12
  HS02004870HS02004876 CONDUIT     61.90     0  03:01      0.65    0.04    0.14
  HS02004842HS02004848 CONDUIT     12.41     0  03:01      0.06    0.01    0.31
  HS02004837HS02004842 CONDUIT     12.98     0  03:02      0.42    0.01    0.32
  HS02004830HS02004837 CONDUIT     43.71     0  03:01      0.57    0.04    0.11
  HS02004824HS02004830 CONDUIT     43.66     0  03:01      0.59    0.06    0.11
  HS02004817HS02004824 CONDUIT     85.68     0  03:01      0.26    0.04    0.48
  HS02004770HS02004777 CONDUIT    104.13     0  03:01      0.35    0.19    0.43
  HS02004799HS02004480 CONDUIT    258.29     0  03:01      0.83    0.33    0.44
  HS02004792HS02004799 CONDUIT    237.04     0  03:01      0.95    0.15    0.36
  HS02004788HS02004792 CONDUIT    135.43     0  03:01      1.06    0.09    0.18
  HS02004785HS02004788 CONDUIT    103.22     0  03:02      0.71    0.78    0.21
  HS02004777HS02004785 CONDUIT    103.37     0  03:01      0.42    0.13    0.35
  HS02004480HS02004478 CONDUIT    302.28     0  03:01      1.26    1.27    0.34
  HS02004479HS02004480 CONDUIT     46.29     0  03:02      0.32    0.04    0.43
  HS02004862HS02004870 CONDUIT     47.43     0  03:01      0.66    0.05    0.10
  HS02004848HS02004852 CONDUIT     21.94     0  03:01      0.45    0.02    0.07
  HS02004856HS02004862 CONDUIT     32.47     0  03:01      0.48    0.03    0.10
  HS02004852HS02004856 CONDUIT     21.85     0  03:02      0.25    0.02    0.13
  HS02004802HS02004478 CONDUIT    111.52     0  03:02      0.45    0.10    0.36
  HS02004478WS02006287 CONDUIT    413.21     0  03:01      1.75    0.12    0.26
  HS02004817HS02004807 CONDUIT     86.14     0  03:01      0.19    0.05    0.63
  HS02004807HS02004802 CONDUIT    111.36     0  03:01      0.38    0.21    0.42
  YS02001759YS02001757 CONDUIT    686.86     0  02:50      0.87    0.49    1.00
  YS02001762YS02001759 CONDUIT    350.45     0  02:49      0.45    0.40    1.00
  YS02001765YS02001762 CONDUIT    349.88     0  02:49      0.45    0.33    1.00
  YS02001770YS02001767 CONDUIT    350.74     0  02:49      0.45    1.39    1.00
  YS02001774YS02001770 CONDUIT    275.39     0  03:01      0.35    0.18    1.00
  YS02001779YS02001774 CONDUIT    275.76     0  03:01      0.35    0.14    1.00
  YS02001649YS02001757 CONDUIT    952.22     0  02:43      1.21    0.58    1.00
  YS02001767YS02001765 CONDUIT    350.79     0  02:49      0.45    0.44    1.00
  YS02006561YS02001783 CONDUIT   1023.65     0  02:47      2.15    0.53    1.00
  YS02001783YS02001784 CONDUIT   1023.53     0  02:47      2.04    1.41    1.00
  YS02001784YS02001785 CONDUIT   1024.62     0  02:47      2.04    2.38    1.00
  YS02001788YS02001790 CONDUIT   1024.57     0  02:47      2.44    0.76    1.00
  YS02001790YS02001791 CONDUIT   1024.91     0  02:47      2.88    1.12    1.00
  YS02001791YS02001793 CONDUIT   1025.18     0  02:47      5.76    0.44    1.00
  YS02001910YS02001907 CONDUIT    455.66     0  03:01      0.58    0.26    1.00
  YS02001786YS02001788 CONDUIT   1025.18     0  02:47      2.31    1.98    1.00
  YS02001915YS02001910 CONDUIT    456.35     0  03:01      0.59    0.23    1.00
  YS02001918YS02001915 CONDUIT    247.35     0  03:31      0.44    0.14    1.00
  YS02001923YS02001920 CONDUIT    186.16     0  03:30      0.72    0.08    1.00
  YS02001926YS02001923 CONDUIT    166.62     0  02:49      0.83    0.24    0.86
  YS02001929YS02001926 CONDUIT    155.54     0  03:02      0.89    0.07    0.76
  YS02001920YS02001918 CONDUIT    211.56     0  03:30      0.70    0.20    1.00
  YS02001629YS02163301 CONDUIT    236.16     0  02:34      0.30    0.29    1.00
  YS02001619YS02001622 CONDUIT    291.10     0  03:01      0.61    0.43    1.00
  YS02001622YS02001625 CONDUIT    290.62     0  03:00      0.37    0.16    1.00
  YS02001625YS02001629 CONDUIT    214.09     0  02:42      0.27    0.10    1.00
  YS02163301YS02001633 CONDUIT    237.63     0  02:34      0.30    0.22    1.00
  YS02163601YS02164001 CONDUIT    452.48     0  02:42      0.58    0.40    1.00
  YS02164001YS02001641 CONDUIT    454.25     0  02:36      0.58    0.62    1.00
  YS02001641YS02001644 CONDUIT    456.14     0  02:36      0.58    1.47    1.00
  YS02001647YS02001649 CONDUIT    687.53     0  02:42      0.88    0.36    1.00
  YS02006553YS02006556 CONDUIT    704.25     0  03:31      0.90    0.60    1.00
  YS02006556YS02006558 CONDUIT    704.61     0  03:31      0.90    0.56    1.00
  YSB6556YSB1171       CONDUIT     25.76     0  03:03      0.09    0.03    0.70
  YS02001907YS02006553 CONDUIT    703.74     0  03:31      0.78    0.83    1.00
  YS02006558YS02006561 CONDUIT   1023.35     0  02:47      3.62    2.26    1.00
  YS02001633YS02163601 CONDUIT    452.22     0  02:42      0.58    0.47    1.00
  YS02001644YS02001647 CONDUIT    687.35     0  02:43      0.88    0.40    1.00
  YS02001745YS02001748 CONDUIT    612.59     0  02:35      1.48    0.24    0.94
  YS02001748YS02001751 CONDUIT    364.84     0  02:28      1.06    0.18    1.00
  YS02001751YS02001754 CONDUIT    346.37     0  03:01      0.92    0.17    1.00
  YS02001754YS02001757 CONDUIT    346.53     0  03:01      0.44    0.14    1.00
  YS02001882YS02001884 CONDUIT     27.17     0  02:28      0.13    0.03    1.00
  YS02001884YS02001887 CONDUIT     58.73     0  02:28      0.09    0.08    1.00
  YS02001890YS02001895 CONDUIT    495.67     0  03:01      0.63    0.23    1.00
  YS02001895YS02001898 CONDUIT    494.80     0  03:00      0.63    0.86    1.00
  YS02001898YS02001901 CONDUIT    495.12     0  03:00      0.63    0.32    1.00
  YS02001901YS02001904 CONDUIT    494.74     0  03:01      0.63    0.77    1.00
  YS02001904YS02001907 CONDUIT    495.59     0  03:00      0.63    0.17    1.00
  YS02001887YS02001890 CONDUIT    495.85     0  03:01      0.63    0.85    1.00
  YS02001652YS02001649 CONDUIT    400.48     0  03:01      0.63    0.20    1.00
  YS02001655YS02001652 CONDUIT    397.18     0  03:01      0.98    0.19    1.00
  YS02001658YS02001655 CONDUIT    395.88     0  03:01      1.22    0.17    1.00
  YS02001661YS02001658 CONDUIT    530.15     0  02:34      1.55    0.21    1.00
  YS02001664YS02001661 CONDUIT    680.08     0  02:51      1.61    0.21    0.72
  YSB1154YSB6556       CONDUIT     25.82     0  03:01      0.17    0.05    0.59
  YSB1174YSB1171       CONDUIT     20.15     0  03:01      0.07    0.03    0.70
  YSB1171HS02004479    CONDUIT     44.90     0  03:02      0.54    0.03    0.55
  HS02004881HS02006253 CONDUIT     84.16     0  03:01      1.60    0.02    0.53
  YS02001793JiankangQianchi CONDUIT   1025.19     0  02:47     16.71    0.08    1.00
  YS02001757CaochengTiaoxuchi CONDUIT   1827.50     0  02:44      2.52    0.80    1.00
  WSF200WS02003060     CONDUIT    830.14     0  03:05      2.00    0.18    0.42
  1                    CONDUIT   1233.85     0  03:07      3.52    0.43    0.46
  CC-Pump-1            PUMP       200.00     0  01:45              1.00
  CC-Pump-2            PUMP       200.00     0  01:45              1.00
  JK-Pump-1            PUMP       300.00     0  00:00              1.00
  JK-Pump-2            PUMP       683.00     0  00:00              1.00
  XR-Pump-1            PUMP        95.00     0  00:00              1.00
  XR-Pump-2            PUMP        95.00     0  00:00              1.00
  XR-Pump-3            PUMP        95.00     0  00:00              1.00
  XR-Pump-4            PUMP        95.00     0  00:00              1.00
  
  
  ***************************
  Flow Classification Summary
  ***************************
  
  -------------------------------------------------------------------------------------
                      Adjusted    ---------- Fraction of Time in Flow Class ---------- 
                       /Actual         Up    Down  Sub   Sup   Up    Down  Norm  Inlet 
  Conduit               Length    Dry  Dry   Dry   Crit  Crit  Crit  Crit  Ltd   Ctrl  
  -------------------------------------------------------------------------------------
  WS02003066WSF200        1.00   0.02  0.05  0.00  0.00  0.93  0.00  0.00  0.36  0.00
  WS02006287WS02006284    1.00   0.03  0.01  0.00  0.65  0.32  0.00  0.00  0.62  0.00
  WS02006284WS02006280    1.00   0.03  0.00  0.00  0.00  0.00  0.00  0.97  0.00  0.00
  WS02006280WS02006229    1.00   0.03  0.00  0.00  0.00  0.04  0.00  0.93  0.06  0.00
  WS02006229WS02006228    1.00   0.00  0.00  0.00  1.00  0.00  0.00  0.00  0.00  0.00
  WS02006256WS02006235    1.00   0.00  0.00  0.00  1.00  0.00  0.00  0.00  0.00  0.00
  WS02006253WS02006251    1.00   0.01  0.02  0.00  0.97  0.00  0.01  0.00  0.00  0.00
  WS02006252WS02006251    1.00   0.06  0.00  0.00  0.27  0.00  0.67  0.00  0.00  0.00
  WS02006251WS02006249    1.00   0.00  0.00  0.00  1.00  0.00  0.00  0.00  0.20  0.00
  WS02006249WS02006248    1.00   0.00  0.01  0.00  0.93  0.00  0.07  0.00  0.00  0.00
  WS02006248WS02006247    1.00   0.01  0.00  0.00  0.98  0.00  0.00  0.01  0.08  0.00
  WS02006247WS02006245    1.00   0.01  0.00  0.00  0.97  0.00  0.00  0.02  0.00  0.00
  WS02006245WS02006243    1.00   0.00  0.00  0.00  0.95  0.00  0.00  0.05  0.01  0.00
  WS02006243WS02006242    1.00   0.00  0.00  0.00  1.00  0.00  0.00  0.00  0.19  0.00
  WS02006242WS02006240    1.00   0.00  0.00  0.00  1.00  0.00  0.00  0.00  0.00  0.00
  WS02006240WS02006239    1.00   0.00  0.00  0.00  0.95  0.00  0.00  0.05  0.01  0.00
  WS02006239WS02006238    1.00   0.00  0.00  0.00  1.00  0.00  0.00  0.00  0.14  0.00
  WS02006238WS02006235    1.00   0.00  0.00  0.00  1.00  0.00  0.00  0.00  0.00  0.00
  WS02006235WS02006234    1.00   0.00  0.00  0.00  0.96  0.00  0.04  0.00  0.00  0.00
  WS02006234WS02006232    1.00   0.00  0.00  0.00  1.00  0.00  0.00  0.00  0.10  0.00
  WS02006232WS02006231    1.00   0.00  0.00  0.00  1.00  0.00  0.00  0.00  0.00  0.00
  WS02006231WS02006230    1.00   0.00  0.00  0.00  0.78  0.00  0.22  0.00  0.00  0.00
  WS02006230WS02006229    1.00   0.00  0.00  0.00  1.00  0.00  0.00  0.00  0.01  0.00
  WS02006228WS02006109    1.00   0.00  0.00  0.00  1.00  0.00  0.00  0.00  0.00  0.00
  WS02006116WS02004401    1.00   0.01  0.00  0.00  0.99  0.00  0.00  0.00  0.01  0.00
  WS02006115WS02006116    1.00   0.01  0.00  0.00  0.97  0.00  0.00  0.02  0.01  0.00
  WS02006113WS02006111    1.00   0.01  0.00  0.00  0.05  0.94  0.00  0.00  0.12  0.00
  WS02006112WS02006115    1.00   0.01  0.00  0.00  0.99  0.00  0.00  0.00  0.00  0.00
  WS02006111WS02006112    1.00   0.01  0.00  0.00  0.99  0.00  0.00  0.00  0.77  0.00
  WS02006110WS02006113    1.00   0.00  0.00  0.00  0.99  0.00  0.00  0.00  0.00  0.00
  WS02006109WS02006110    1.00   0.00  0.00  0.00  1.00  0.00  0.00  0.00  0.00  0.00
  WS02004411WS02004412    1.00   0.05  0.00  0.00  0.95  0.00  0.00  0.00  0.00  0.00
  WS02004401WS02004402    1.00   0.01  0.00  0.00  0.99  0.00  0.00  0.00  0.01  0.00
  WS02004413WS02003067    1.00   0.05  0.01  0.00  0.00  0.00  0.94  0.00  0.00  0.00
  WS02004412WS02004413    1.00   0.05  0.00  0.00  0.95  0.00  0.00  0.00  0.00  0.00
  WS02004410WS02004411    1.00   0.05  0.00  0.00  0.95  0.00  0.00  0.00  0.00  0.00
  WS02004409WS02004410    1.00   0.05  0.00  0.00  0.95  0.00  0.00  0.00  0.00  0.00
  WS02004407WS02004409    1.00   0.05  0.00  0.00  0.95  0.01  0.00  0.00  0.81  0.00
  WS02004406WS02004407    1.00   0.00  0.05  0.00  0.95  0.00  0.00  0.00  0.00  0.00
  WS02004405WS02004406    1.00   0.00  0.00  0.00  1.00  0.00  0.00  0.00  0.02  0.00
  WS02004404WS02004405    1.00   0.00  0.00  0.00  1.00  0.00  0.00  0.00  0.00  0.00
  WS02004403WS02004404    1.00   0.00  0.01  0.00  0.99  0.00  0.00  0.00  0.02  0.00
  WS02004402WS02004403    1.00   0.01  0.00  0.00  0.99  0.00  0.00  0.00  0.00  0.00
  WS02004139WS02001211    1.00   0.00  0.00  0.00  1.00  0.00  0.00  0.00  0.00  0.00
  WS02004138WS02004139    1.00   0.00  0.00  0.00  1.00  0.00  0.00  0.00  1.00  0.00
  WS02003067WS02003066    1.00   0.06  0.01  0.00  0.93  0.00  0.00  0.00  0.00  0.00
  WS02001213WS02003059    1.00   0.00  0.00  0.00  1.00  0.00  0.00  0.00  0.00  0.00
  WS02001212WS02001213    1.00   0.00  0.00  0.00  0.92  0.00  0.08  0.00  0.00  0.00
  WS02001211WS02001212    1.00   0.00  0.00  0.00  1.00  0.00  0.00  0.00  0.00  0.00
  WS02003072WS02003073    1.00   0.00  0.00  0.00  0.00  0.00  0.00  1.00  0.00  0.00
  WS02003069WS02003072    1.00   0.00  0.00  0.00  1.00  0.00  0.00  0.00  0.09  0.00
  WS02003060WS02003069    1.00   0.00  0.00  0.00  0.99  0.01  0.00  0.00  0.07  0.00
  WS02003059WS02003060    1.00   0.00  0.00  0.00  1.00  0.00  0.00  0.00  0.00  0.00
  HS02004901HS02004770    1.00   0.03  0.00  0.00  0.97  0.00  0.00  0.00  0.00  0.00
  HS02004876HS02004881    1.00   0.01  0.00  0.00  0.94  0.05  0.00  0.00  0.00  0.00
  HS02004870HS02004876    1.00   0.00  0.00  0.00  1.00  0.00  0.00  0.00  0.95  0.00
  HS02004842HS02004848    1.00   0.00  0.03  0.00  0.97  0.00  0.00  0.00  0.55  0.00
  HS02004837HS02004842    1.00   0.00  0.00  0.00  1.00  0.00  0.00  0.00  0.11  0.00
  HS02004830HS02004837    1.00   0.00  0.00  0.00  1.00  0.00  0.00  0.00  0.99  0.00
  HS02004824HS02004830    1.00   0.00  0.00  0.00  1.00  0.00  0.00  0.00  0.00  0.00
  HS02004817HS02004824    1.00   0.00  0.00  0.00  1.00  0.00  0.00  0.00  1.00  0.00
  HS02004770HS02004777    1.00   0.00  0.03  0.00  0.97  0.00  0.00  0.00  0.02  0.00
  HS02004799HS02004480    1.00   0.00  0.01  0.00  0.96  0.00  0.03  0.00  0.00  0.00
  HS02004792HS02004799    1.00   0.00  0.00  0.00  1.00  0.00  0.00  0.00  0.98  0.00
  HS02004788HS02004792    1.00   0.00  0.00  0.00  1.00  0.00  0.00  0.00  0.98  0.00
  HS02004785HS02004788    1.00   0.00  0.00  0.00  1.00  0.00  0.00  0.00  0.00  0.00
  HS02004777HS02004785    1.00   0.00  0.00  0.00  1.00  0.00  0.00  0.00  0.12  0.00
  HS02004480HS02004478    1.00   0.03  0.00  0.00  0.73  0.00  0.00  0.24  0.00  0.00
  HS02004479HS02004480    1.00   0.01  0.00  0.00  0.99  0.00  0.00  0.00  0.11  0.00
  HS02004862HS02004870    1.00   0.00  0.00  0.00  1.00  0.00  0.00  0.00  0.03  0.00
  HS02004848HS02004852    1.00   0.03  0.00  0.00  0.97  0.00  0.00  0.00  0.62  0.00
  HS02004856HS02004862    1.00   0.00  0.04  0.00  0.96  0.00  0.00  0.00  0.83  0.00
  HS02004852HS02004856    1.00   0.03  0.00  0.00  0.97  0.00  0.00  0.00  0.85  0.00
  HS02004802HS02004478    1.00   0.03  0.00  0.00  0.97  0.00  0.00  0.00  0.02  0.00
  HS02004478WS02006287    1.00   0.04  0.00  0.00  0.78  0.18  0.00  0.00  0.64  0.00
  HS02004817HS02004807    1.00   0.00  0.03  0.00  0.97  0.00  0.00  0.00  0.01  0.00
  HS02004807HS02004802    1.00   0.03  0.00  0.00  0.96  0.00  0.00  0.00  0.00  0.00
  YS02001759YS02001757    1.00   0.00  0.00  0.00  1.00  0.00  0.00  0.00  0.16  0.00
  YS02001762YS02001759    1.00   0.00  0.00  0.00  1.00  0.00  0.00  0.00  0.03  0.00
  YS02001765YS02001762    1.00   0.00  0.00  0.00  1.00  0.00  0.00  0.00  0.13  0.00
  YS02001770YS02001767    1.00   0.00  0.00  0.00  1.00  0.00  0.00  0.00  0.00  0.00
  YS02001774YS02001770    1.00   0.00  0.03  0.00  0.97  0.00  0.00  0.00  0.02  0.00
  YS02001779YS02001774    1.00   0.00  0.00  0.00  1.00  0.00  0.00  0.00  0.18  0.00
  YS02001649YS02001757    1.00   0.00  0.00  0.00  1.00  0.00  0.00  0.00  0.16  0.00
  YS02001767YS02001765    1.00   0.00  0.00  0.00  1.00  0.00  0.00  0.00  0.00  0.00
  YS02006561YS02001783    1.00   0.05  0.00  0.00  0.29  0.66  0.00  0.00  0.46  0.00
  YS02001783YS02001784    1.00   0.00  0.05  0.00  0.95  0.00  0.00  0.00  0.00  0.00
  YS02001784YS02001785    1.00   0.00  0.00  0.00  1.00  0.00  0.00  0.00  0.17  0.00
  YS02001788YS02001790    1.00   0.00  0.00  0.00  0.33  0.67  0.00  0.00  0.39  0.00
  YS02001790YS02001791    1.00   0.00  0.00  0.00  0.30  0.70  0.00  0.00  0.51  0.00
  YS02001791YS02001793    1.00   0.00  0.00  0.00  0.33  0.67  0.00  0.00  0.02  0.00
  YS02001910YS02001907    1.00   0.00  0.00  0.00  0.99  0.00  0.00  0.01  0.12  0.00
  YS02001786YS02001788    1.00   0.00  0.00  0.00  0.31  0.69  0.00  0.00  0.00  0.00
  YS02001915YS02001910    1.00   0.00  0.00  0.00  0.99  0.01  0.00  0.00  0.15  0.00
  YS02001918YS02001915    1.00   0.00  0.00  0.00  0.99  0.00  0.00  0.00  0.55  0.00
  YS02001923YS02001920    1.00   0.00  0.00  0.00  1.00  0.00  0.00  0.00  0.84  0.00
  YS02001926YS02001923    1.00   0.00  0.02  0.00  0.09  0.00  0.89  0.00  0.00  0.00
  YS02001929YS02001926    1.00   0.00  0.03  0.00  0.97  0.00  0.00  0.00  0.76  0.00
  YS02001920YS02001918    1.00   0.00  0.00  0.00  1.00  0.00  0.00  0.00  0.00  0.00
  YS02001629YS02163301    1.00   0.04  0.00  0.00  0.96  0.00  0.00  0.00  0.00  0.00
  YS02001619YS02001622    1.00   0.03  0.00  0.00  0.97  0.00  0.00  0.00  0.00  0.00
  YS02001622YS02001625    1.00   0.03  0.00  0.00  0.97  0.00  0.00  0.00  0.04  0.00
  YS02001625YS02001629    1.00   0.03  0.01  0.00  0.94  0.00  0.02  0.00  0.00  0.00
  YS02163301YS02001633    1.00   0.00  0.04  0.00  0.96  0.00  0.00  0.00  0.00  0.00
  YS02163601YS02164001    1.00   0.00  0.02  0.00  0.98  0.00  0.00  0.00  0.00  0.00
  YS02164001YS02001641    1.00   0.00  0.02  0.00  0.98  0.00  0.00  0.00  0.06  0.00
  YS02001641YS02001644    1.00   0.00  0.00  0.00  1.00  0.00  0.00  0.00  0.00  0.00
  YS02001647YS02001649    1.00   0.00  0.04  0.00  0.96  0.00  0.00  0.00  0.01  0.00
  YS02006553YS02006556    1.00   0.00  0.00  0.00  1.00  0.00  0.00  0.00  0.03  0.00
  YS02006556YS02006558    1.00   0.00  0.00  0.00  1.00  0.00  0.00  0.00  0.00  0.00
  YSB6556YSB1171          1.00   0.01  0.02  0.00  0.97  0.00  0.00  0.00  0.00  0.00
  YS02001907YS02006553    1.00   0.00  0.01  0.00  0.99  0.00  0.00  0.00  0.00  0.00
  YS02006558YS02006561    1.00   0.05  0.00  0.00  0.10  0.86  0.00  0.00  0.48  0.00
  YS02001633YS02163601    1.00   0.00  0.00  0.00  1.00  0.00  0.00  0.00  0.15  0.00
  YS02001644YS02001647    1.00   0.00  0.04  0.00  0.96  0.00  0.00  0.00  0.00  0.00
  YS02001745YS02001748    1.00   0.00  0.00  0.00  0.91  0.01  0.00  0.09  0.07  0.00
  YS02001748YS02001751    1.00   0.00  0.00  0.00  0.97  0.03  0.00  0.00  0.15  0.00
  YS02001751YS02001754    1.00   0.00  0.00  0.00  0.95  0.00  0.00  0.05  0.02  0.00
  YS02001754YS02001757    1.00   0.00  0.00  0.00  1.00  0.00  0.00  0.00  0.18  0.00
  YS02001882YS02001884    1.00   0.04  0.00  0.00  0.96  0.00  0.00  0.00  0.00  0.00
  YS02001884YS02001887    1.00   0.02  0.01  0.00  0.97  0.00  0.00  0.00  0.00  0.00
  YS02001890YS02001895    1.00   0.00  0.04  0.00  0.96  0.00  0.00  0.00  0.00  0.00
  YS02001895YS02001898    1.00   0.04  0.00  0.00  0.95  0.00  0.01  0.00  0.00  0.00
  YS02001898YS02001901    1.00   0.04  0.00  0.00  0.96  0.00  0.00  0.00  0.01  0.00
  YS02001901YS02001904    1.00   0.04  0.00  0.00  0.96  0.00  0.00  0.00  0.00  0.00
  YS02001904YS02001907    1.00   0.00  0.04  0.00  0.96  0.00  0.00  0.00  0.00  0.00
  YS02001887YS02001890    1.00   0.00  0.00  0.00  0.99  0.00  0.01  0.00  0.00  0.00
  YS02001652YS02001649    1.00   0.00  0.00  0.00  1.00  0.00  0.00  0.00  0.16  0.00
  YS02001655YS02001652    1.00   0.00  0.00  0.00  0.95  0.00  0.00  0.05  0.02  0.00
  YS02001658YS02001655    1.00   0.00  0.03  0.00  0.94  0.03  0.00  0.00  0.08  0.00
  YS02001661YS02001658    1.00   0.03  0.00  0.00  0.91  0.06  0.00  0.00  0.11  0.00
  YS02001664YS02001661    1.00   0.03  0.00  0.00  0.88  0.09  0.00  0.00  0.21  0.00
  YSB1154YSB6556          1.00   0.03  0.00  0.00  0.97  0.00  0.00  0.00  0.01  0.00
  YSB1174YSB1171          1.00   0.01  0.01  0.00  0.98  0.00  0.00  0.00  0.00  0.00
  YSB1171HS02004479       1.00   0.01  0.00  0.00  0.99  0.00  0.00  0.00  0.10  0.00
  HS02004881HS02006253    1.00   0.01  0.00  0.00  0.90  0.01  0.00  0.08  0.76  0.00
  YS02001793JiankangQianchi    1.00   0.00  0.00  0.00  0.62  0.38  0.00  0.00  0.39  0.00
  YS02001757CaochengTiaoxuchi    1.00   0.00  0.06  0.00  0.92  0.02  0.00  0.00  0.00  0.00
  WSF200WS02003060        1.00   0.00  0.02  0.00  0.95  0.03  0.00  0.00  0.28  0.00
  1                       1.00   0.00  0.00  0.00  0.00  1.00  0.00  0.00  0.51  0.00
  
  
  *************************
  Conduit Surcharge Summary
  *************************
  
  ----------------------------------------------------------------------------
                                                           Hours        Hours 
                         --------- Hours Full --------   Above Full   Capacity
  Conduit                Both Ends  Upstream  Dnstream   Normal Flow   Limited
  ----------------------------------------------------------------------------
  WS02006229WS02006228        4.75      4.79      4.75      5.32         4.75
  WS02006256WS02006235        6.00      6.00      6.71      4.39         0.01
  WS02006253WS02006251        3.51      3.51      3.58      0.01         0.01
  WS02006252WS02006251        3.35      3.35      4.06      3.84         0.01
  WS02006251WS02006249        3.51      3.53      3.57      3.09         2.86
  WS02006249WS02006248        3.53      3.53      3.57      5.83         0.01
  WS02006248WS02006247        3.57      3.57      3.75      0.01         0.01
  WS02006247WS02006245        3.73      3.79      3.73      5.92         3.67
  WS02006245WS02006243        3.77      3.77      3.92      0.73         0.74
  WS02006243WS02006242        4.00      4.00      4.66      0.01         0.01
  WS02006242WS02006240        4.59      4.59      4.76      3.55         0.01
  WS02006240WS02006239        4.61      4.61      4.63      1.59         1.43
  WS02006239WS02006238        4.71      4.72      4.75      1.84         1.57
  WS02006238WS02006235        4.74      4.74      4.79      0.01         0.02
  WS02006235WS02006234        4.43      4.43      4.72      5.98         0.01
  WS02006234WS02006232        4.66      4.66      4.80      1.34         1.28
  WS02006232WS02006231        3.22      3.22      4.80      1.62         0.01
  WS02006231WS02006230        2.83      2.83      3.30      6.02         0.01
  WS02006230WS02006229        5.02      5.26      5.02      6.15         5.02
  WS02006228WS02006109        4.76      4.84      4.76      5.67         4.76
  WS02006116WS02004401        1.09      1.09      1.11      0.76         0.77
[...]
  YS02001765YS02001762        5.83      5.83      5.87      0.01         0.01
  YS02001770YS02001767        5.65      5.66      5.66      0.40         0.89
  YS02001774YS02001770        5.63      5.63      5.85      0.01         0.01
  YS02001779YS02001774        5.46      5.46      5.85      0.01         0.01
  YS02001649YS02001757        5.87      5.87      5.97      0.01         0.01
  YS02001767YS02001765        5.66      5.66      5.83      0.01         0.01
  YS02006561YS02001783        0.74      0.74      1.18      0.01         0.01
  YS02001783YS02001784        1.16      1.18      1.16      1.32         1.07
  YS02001784YS02001785        1.10      1.16      1.10      2.40         1.10
  YS02001788YS02001790        1.05      1.05      1.69      0.01         0.01
  YS02001790YS02001791        1.69      1.69      1.79      0.92         0.90
  YS02001791YS02001793        1.79      1.79      2.13      0.01         0.01
  YS02001910YS02001907        1.10      1.10      1.77      0.01         0.01
  YS02001786YS02001788        1.05      1.10      1.05      1.95         1.05
  YS02001915YS02001910        0.92      0.92      1.10      0.01         0.01
  YS02001918YS02001915        0.70      0.70      0.92      0.01         0.01
  YS02001923YS02001920        0.53      0.53      0.74      0.01         0.01
  YS02001920YS02001918        0.70      0.70      0.74      0.01         0.01
  YS02001629YS02163301        5.61      5.61      5.68      0.01         0.01
  YS02001619YS02001622        5.32      5.32      5.37      0.01         0.01
  YS02001622YS02001625        5.37      5.37      5.60      0.01         0.01
  YS02001625YS02001629        5.33      5.33      5.60      0.01         0.01
  YS02163301YS02001633        5.68      5.68      5.83      0.01         0.01
  YS02163601YS02164001        5.83      5.83      5.87      0.01         0.01
  YS02164001YS02001641        5.83      5.83      5.84      0.01         0.04
  YS02001641YS02001644        5.84      5.84      5.84      1.52         1.53
  YS02001647YS02001649        5.59      5.59      5.87      0.01         0.01
  YS02006553YS02006556        1.32      1.32      1.84      0.01         0.01
  YS02006556YS02006558        1.55      1.55      1.91      0.01         0.01
  YS02001907YS02006553        2.41      2.41      2.62      0.01         0.01
  YS02006558YS02006561        0.94      1.29      0.94      2.24         0.94
  YS02001633YS02163601        5.82      5.82      5.87      0.01         0.01
  YS02001644YS02001647        5.59      5.59      5.84      0.01         0.01
  YS02001745YS02001748        0.01      0.01      5.00      0.01         0.01
  YS02001748YS02001751        5.22      5.22      5.30      0.01         0.01
  YS02001751YS02001754        5.30      5.30      5.46      0.01         0.01
  YS02001754YS02001757        5.60      5.60      5.97      0.01         0.01
  YS02001882YS02001884        0.93      0.93      0.96      0.01         0.01
  YS02001884YS02001887        1.00      1.00      1.03      0.01         0.01
  YS02001890YS02001895        0.90      0.90      1.12      0.01         0.01
  YS02001895YS02001898        0.89      0.89      0.90      0.01         0.01
  YS02001898YS02001901        0.91      0.91      1.00      0.01         0.01
  YS02001901YS02001904        0.97      0.97      1.00      0.01         0.01
  YS02001904YS02001907        0.97      0.97      1.86      0.01         0.01
  YS02001887YS02001890        1.06      1.06      1.08      0.01         0.01
  YS02001652YS02001649        5.60      5.60      5.87      0.01         0.01
  YS02001655YS02001652        5.35      5.35      5.59      0.01         0.01
  YS02001658YS02001655        5.10      5.10      5.35      0.01         0.01
  YS02001661YS02001658        0.18      0.18      5.10      0.01         0.01
  YS02001664YS02001661        0.01      0.01      1.03      0.01         0.01
  HS02004881HS02006253        0.01      0.01      2.74      0.01         0.01
  YS02001793JiankangQianchi        2.04      2.04      3.69      0.01         0.01
  YS02001757CaochengTiaoxuchi        4.96      4.96      5.97      0.01         0.01
  
  
  ***************
  Pumping Summary
  ***************
  
  ---------------------------------------------------------------------------------------------------------
                                                  Min       Avg       Max     Total     Power    % Time Off
                        Percent   Number of      Flow      Flow      Flow    Volume     Usage    Pump Curve
  Pump                 Utilized   Start-Ups       LPS       LPS       LPS  10^6 ltr     Kw-hr    Low   High
  ---------------------------------------------------------------------------------------------------------
  CC-Pump-1               78.79           1      0.00    193.92    200.00     4.289      7.83    0.0   12.1
  CC-Pump-2               57.51           6      0.00    133.74    200.00     2.609      6.56    0.0   16.6
  JK-Pump-1               61.71           5      0.00    224.09    300.00     3.727     58.75    0.0    0.0
  JK-Pump-2               59.58           5      0.00    397.78    683.00     6.711     99.07    0.0   96.6
  XR-Pump-1               97.87           2      0.00     94.35     95.00     2.565     26.17    0.0    0.0
  XR-Pump-2               97.87           2      0.00     92.10     95.00     2.508     25.06    0.0    0.0
  XR-Pump-3               97.87           2      0.00     91.63     95.00     2.451     23.75    0.0    0.0
  XR-Pump-4               97.87           2      0.00     91.63     95.00     2.451     23.75    0.0    0.0
  
  
  ***************************
  Link Pollutant Load Summary
  ***************************
  
  ------------------------------------------------------------------------------------------
                                 COD            SS            TN            TP         NH4-N
  Link                            kg            kg            kg            kg            kg
  ------------------------------------------------------------------------------------------
  WS02003066WSF200           918.914      1696.434        23.541         2.021        12.318
  WS02006287WS02006284       268.075       498.252         9.345         0.943         5.213
  WS02006284WS02006280       268.563       499.040         9.392         0.949         5.243
  WS02006280WS02006229       268.537       498.992         9.390         0.948         5.241
  WS02006229WS02006228       933.806      1724.220        23.335         1.967        12.126
  WS02006256WS02006235       166.866       306.135         3.686         0.287         1.864
  WS02006253WS02006251        50.282        97.260         1.112         0.083         0.551
  WS02006252WS02006251       585.578      1074.103        11.980         0.852         5.854
  WS02006251WS02006249       628.036      1156.938        12.952         0.926         6.339
  WS02006249WS02006248       512.755       944.843        10.577         0.755         5.179
  WS02006248WS02006247       512.041       943.564        10.564         0.755         5.173
  WS02006247WS02006245       511.178       942.012        10.545         0.753         5.163
  WS02006245WS02006243       509.811       939.556        10.513         0.751         5.147
  WS02006243WS02006242       508.956       938.044        10.497         0.750         5.140
  WS02006242WS02006240       507.480       935.392        10.464         0.747         5.123
  WS02006240WS02006239       506.204       933.100        10.434         0.745         5.108
  WS02006239WS02006238       505.392       931.650        10.419         0.744         5.101
  WS02006238WS02006235       504.995       930.937        10.409         0.743         5.096
  WS02006235WS02006234       670.908      1235.340        14.073         1.028         6.949
  WS02006234WS02006232       669.856      1233.443        14.053         1.027         6.940
  WS02006232WS02006231       668.656      1231.261        14.027         1.025         6.927
  WS02006231WS02006230       667.423      1229.026        14.001         1.023         6.914
  WS02006230WS02006229       666.259      1226.957        13.975         1.021         6.901
  WS02006228WS02006109       932.406      1721.687        23.303         1.965        12.110
  WS02006116WS02004401       939.211      1732.989        24.016         2.058        12.559
  WS02006115WS02006116       941.182      1736.519        24.064         2.061        12.583
  WS02006113WS02006111       936.522      1727.366        24.007         2.057        12.562
  WS02006112WS02006115       943.085      1739.893        24.121         2.067        12.614
  WS02006111WS02006112       936.010      1726.481        23.996         2.057        12.556
  WS02006110WS02006113       937.646      1729.411        24.038         2.060        12.578
  WS02006109WS02006110       939.396      1732.542        24.091         2.065        12.607
  WS02004411WS02004412       923.990      1705.443        23.704         2.036        12.407
  WS02004401WS02004402       937.293      1729.575        23.961         2.053        12.529
  WS02004413WS02003067       920.002      1698.418        23.565         2.023        12.329
  WS02004412WS02004413       922.127      1702.114        23.654         2.032        12.380
  WS02004410WS02004411       925.657      1708.439        23.746         2.040        12.429
  WS02004409WS02004410       927.343      1711.450        23.793         2.044        12.454
  WS02004407WS02004409       928.907      1714.274        23.829         2.047        12.472
  WS02004406WS02004407       929.567      1715.501        23.837         2.047        12.475
  WS02004405WS02004406       932.100      1719.977        23.931         2.056        12.528
  WS02004404WS02004405       933.945      1723.386        23.945         2.055        12.530
  WS02004403WS02004404       933.878      1723.475        23.867         2.045        12.479
  WS02004402WS02004403       935.463      1726.292        23.914         2.049        12.505
  WS02004139WS02001211      1405.186      2314.950       116.874        14.313        72.176
  WS02004138WS02004139      1411.744      2325.783       117.403        14.377        72.502
  WS02003067WS02003066       919.209      1696.958        23.551         2.022        12.323
  WS02001213WS02003059      1437.532      2365.955       120.200        14.732        74.265
  WS02001212WS02001213      1446.934      2381.403       120.985        14.828        74.750
  WS02001211WS02001212      1449.234      2385.140       121.188        14.853        74.876
  WS02003072WS02003073      2454.320      4217.674       153.578        17.989        92.749
  WS02003069WS02003072      2460.092      4227.114       154.053        18.047        93.042
  WS02003060WS02003069      2463.225      4232.509       154.224        18.067        93.144
  WS02003059WS02003060      1434.195      2360.389       119.947        14.701        74.110
  HS02004901HS02004770        10.271        19.478         0.196         0.015         0.091
  HS02004876HS02004881        37.321        72.586         0.843         0.062         0.416
  HS02004870HS02004876        28.162        54.632         0.678         0.051         0.338
  HS02004842HS02004848         5.467        10.277         0.115         0.008         0.053
  HS02004837HS02004842        10.072        17.581         0.584         0.067         0.347
  HS02004830HS02004837        65.638       112.702         4.556         0.546         2.785
  HS02004824HS02004830        66.389       113.906         4.628         0.555         2.829
  HS02004817HS02004824        88.207       156.979         5.083         0.584         3.051
  HS02004770HS02004777        39.298        75.470         0.819         0.055         0.377
  HS02004799HS02004480       131.419       245.391         3.680         0.335         1.933
  HS02004792HS02004799       119.093       220.677         3.497         0.327         1.853
  HS02004788HS02004792        68.400       126.865         2.388         0.235         1.309
  HS02004785HS02004788        40.736        77.767         0.969         0.074         0.471
  HS02004777HS02004785        40.062        76.672         0.909         0.067         0.434
  HS02004480HS02004478       165.963       312.620         4.243         0.374         2.195
  HS02004479HS02004480        38.145        72.976         0.884         0.079         0.462
  HS02004862HS02004870        21.017        40.120         0.536         0.043         0.270
  HS02004848HS02004852         8.058        15.281         0.167         0.011         0.077
  HS02004856HS02004862        14.073        27.342         0.284         0.019         0.133
  HS02004852HS02004856         8.065        15.292         0.167         0.011         0.077
  HS02004802HS02004478       102.888       186.894         5.162         0.575         3.054
  HS02004478WS02006287       268.270       498.578         9.362         0.945         5.224
  HS02004817HS02004807        86.888       154.863         4.956         0.568         2.972
  HS02004807HS02004802       103.114       187.248         5.194         0.580         3.075
  YS02001759YS02001757       419.478       772.840         8.347         0.575         4.072
  YS02001762YS02001759       171.424       316.449         3.695         0.256         1.830
  YS02001765YS02001762       171.085       315.866         3.706         0.258         1.838
  YS02001770YS02001767       168.883       312.384         3.403         0.218         1.644
  YS02001774YS02001770        94.905       180.736         1.863         0.120         0.899
  YS02001779YS02001774        94.023       178.969         1.944         0.133         0.956
  YS02001649YS02001757       337.099       599.733         6.730         0.474         3.214
  YS02001767YS02001765       171.270       316.171         3.719         0.259         1.846
  YS02006561YS02001783       940.294      1724.808        19.916         1.495         9.939
  YS02001783YS02001784       940.173      1724.620        19.912         1.494         9.937
  YS02001784YS02001785       947.470      1736.304        20.624         1.583        10.382
  YS02001788YS02001790       948.020      1737.192        20.695         1.593        10.427
  YS02001790YS02001791       948.996      1738.761        20.793         1.605        10.489
  YS02001791YS02001793       948.919      1738.635        20.789         1.604        10.487
  YS02001910YS02001907       330.157       599.240         8.244         0.644         4.261
  YS02001786YS02001788       947.641      1736.580        20.651         1.587        10.400
  YS02001915YS02001910       330.246       599.378         8.200         0.637         4.232
  YS02001918YS02001915       157.649       273.611         4.622         0.432         2.520
  YS02001923YS02001920       136.734       239.918         2.631         0.183         1.276
  YS02001926YS02001923       136.391       239.395         2.586         0.178         1.248
  YS02001929YS02001926       136.169       239.028         2.555         0.174         1.228
  YS02001920YS02001918       156.908       272.182         4.580         0.427         2.495
  YS02001629YS02163301       106.502       188.901         2.231         0.144         1.040
  YS02001619YS02001622       146.413       262.973         3.031         0.197         1.414
  YS02001622YS02001625       145.244       261.115         3.003         0.195         1.401
  YS02001625YS02001629       107.645       190.821         2.256         0.146         1.051
  YS02163301YS02001633       106.223       188.427         2.224         0.144         1.037
  YS02163601YS02164001       365.053       651.720         7.176         0.506         3.432
  YS02164001YS02001641       364.611       650.969         7.158         0.505         3.421
  YS02001641YS02001644       364.853       651.301         7.157         0.504         3.420
  YS02001647YS02001649       316.316       563.089         6.268         0.440         2.993
  YS02006553YS02006556       661.814      1208.460        14.320         1.101         7.222
  YS02006556YS02006558       661.780      1208.385        14.288         1.097         7.200
  YSB6556YSB1171              21.952        42.198         0.451         0.038         0.229
  YS02001907YS02006553       661.891      1208.625        14.333         1.103         7.230
  YS02006558YS02006561       940.295      1724.803        19.916         1.494         9.939
  YS02001633YS02163601       365.723       652.756         7.156         0.502         3.415
  YS02001644YS02001647       323.372       576.104         6.388         0.448         3.050
  YS02001745YS02001748       210.141       386.552         4.737         0.331         2.366
  YS02001748YS02001751       208.621       383.424         4.832         0.347         2.435
  YS02001751YS02001754       207.671       381.859         4.815         0.347         2.428
  YS02001754YS02001757       208.422       382.973         4.979         0.369         2.534
  YS02001882YS02001884         3.031         5.243         0.061         0.005         0.030
  YS02001884YS02001887         7.108        12.590         0.139         0.011         0.069
  YS02001890YS02001895       389.404       720.536         7.188         0.539         3.508
  YS02001895YS02001898       389.213       720.265         7.181         0.539         3.504
  YS02001898YS02001901       389.004       719.912         7.177         0.538         3.502
  YS02001901YS02001904       388.845       719.681         7.183         0.540         3.507
  YS02001904YS02001907       389.079       720.046         7.237         0.547         3.541
  YS02001887YS02001890       390.202       721.729         7.242         0.546         3.541
  YS02001652YS02001649       153.685       281.377         3.131         0.225         1.468
  YS02001655YS02001652       154.173       282.163         3.145         0.226         1.475
  YS02001658YS02001655       153.762       281.538         3.059         0.215         1.419
  YS02001661YS02001658       155.398       284.434         3.093         0.217         1.435
  YS02001664YS02001661       177.109       320.683         3.573         0.250         1.654
  YSB1154YSB6556              21.533        41.530         0.402         0.032         0.198
  YSB1174YSB1171              14.654        28.290         0.298         0.024         0.149
  YSB1171HS02004479           38.103        72.909         0.887         0.079         0.465
  HS02004881HS02006253        42.318        82.622         0.925         0.067         0.454
  YS02001793JiankangQianchi       949.473      1739.538        20.820         1.608        10.505
  YS02001757CaochengTiaoxuchi       827.713      1507.639        17.102         1.212         8.360
  WSF200WS02003060           918.572      1695.750        23.553         2.023        12.327
  1                         2460.583      4226.728       154.467        18.105        93.316
  CC-Pump-1                  371.288       682.976         7.581         0.538         3.704
  CC-Pump-2                  214.384       391.294         4.401         0.314         2.150
  JK-Pump-1                  229.916       425.833         4.918         0.376         2.468
  JK-Pump-2                  497.751       927.494        10.437         0.790         5.212
  XR-Pump-1                  365.360       601.417        30.507         3.738        18.845
  XR-Pump-2                  358.551       590.448        29.888         3.661        18.461
  XR-Pump-3                  345.805       570.055        28.664         3.508        17.696
  XR-Pump-4                  345.805       570.055        28.664         3.508        17.696
  

  Analysis begun on:  Wed Jun  2 20:53:41 2021
  Analysis ended on:  Wed Jun  2 20:53:44 2021
  Total elapsed time: 00:00:03