
  EPA STORM WATER MANAGEMENT MODEL - VERSION 5.1 (Build 5.1.013)
  --------------------------------------------------------------

  WARNING 04: minimum elevation drop used for Conduit WS02004404WS02004405
  WARNING 03: negative offset ignored for Link YS02001904YS02001907
  
  *********************************************************
  NOTE: The summary statistics displayed in this report are
  based on results found at every computational time step,  
  not just on results from each reporting time step.
  *********************************************************
  
  ****************
  Analysis Options
  ****************
  Flow Units ............... LPS
  Process Models:
    Rainfall/Runoff ........ YES
    RDII ................... NO
    Snowmelt ............... NO
    Groundwater ............ NO
    Flow Routing ........... YES
    Ponding Allowed ........ NO
    Water Quality .......... YES
  Infiltration Method ...... HORTON
  Flow Routing Method ...... DYNWAVE
  Surcharge Method ......... EXTRAN
  Starting Date ............ 08/28/2015 08:00:00
  Ending Date .............. 08/28/2015 15:50:00
  Antecedent Dry Days ...... 8.0
  Report Time Step ......... 00:01:00
  Wet Time Step ............ 00:01:00
  Dry Time Step ............ 00:01:00
  Routing Time Step ........ 5.00 sec
  Variable Time Step ....... YES
  Maximum Trials ........... 8
  Number of Threads ........ 4
  Head Tolerance ........... 0.001500 m
  
  
  **************************        Volume         Depth
  Runoff Quantity Continuity     hectare-m            mm
  **************************     ---------       -------
  Total Precipitation ......         6.144        13.452
  Evaporation Loss .........         0.000         0.000
  Infiltration Loss ........         1.064         2.328
  Surface Runoff ...........         4.147         9.079
  Final Storage ............         0.935         2.047
  Continuity Error (%) .....        -0.020
  
  
  **************************           COD            SS            TN            TP         NH4-N
  Runoff Quality Continuity             kg            kg            kg            kg            kg
  **************************    ----------    ----------    ----------    ----------    ----------
  Initial Buildup ..........     41378.656     70582.865      1804.177       168.684      1032.807
  Surface Buildup ..........        21.797        40.918         2.400         0.218         1.395
  Wet Deposition ...........         0.000         0.000         0.000         0.000         0.000
  Sweeping Removal .........         0.000         0.000         0.000         0.000         0.000
  Infiltration Loss ........        97.310       184.940         1.849         0.130         0.881
  BMP Removal ..............         0.000         0.000         0.000         0.000         0.000
  Surface Runoff ...........      3769.799      7064.216        72.780         4.964        34.599
  Remaining Buildup ........     37531.935     63371.915      1731.920       163.806       998.709
  Continuity Error (%) .....         0.003         0.004         0.002         0.001         0.001
  
  
  **************************        Volume        Volume
  Flow Routing Continuity        hectare-m      10^6 ltr
  **************************     ---------     ---------
  Dry Weather Inflow .......         0.616         6.165
  Wet Weather Inflow .......         4.145        41.449
  Groundwater Inflow .......         0.000         0.000
  RDII Inflow ..............         0.000         0.000
  External Inflow ..........         0.102         1.024
  External Outflow .........         2.136        21.359
  Flooding Loss ............         2.299        22.990
  Evaporation Loss .........         0.000         0.000
  Exfiltration Loss ........         0.000         0.000
  Initial Stored Volume ....         0.076         0.761
  Final Stored Volume ......         0.653         6.534
  Continuity Error (%) .....        -3.005
  
  
  **************************           COD            SS            TN            TP         NH4-N
  Quality Routing Continuity            kg            kg            kg            kg            kg
  **************************    ----------    ----------    ----------    ----------    ----------
  Dry Weather Inflow .......      1541.147      2465.835       147.950        18.494        92.469
  Wet Weather Inflow .......      3768.782      7062.431        72.759         4.963        34.589
  Groundwater Inflow .......         0.000         0.000         0.000         0.000         0.000
  RDII Inflow ..............         0.000         0.000         0.000         0.000         0.000
  External Inflow ..........       183.412       293.459        17.608         2.201        11.005
  External Outflow .........      2508.650      4364.036       151.339        17.620        91.091
  Flooding Loss ............      2260.549      4202.684        58.811         5.169        31.007
  Exfiltration Loss ........         0.000         0.000         0.000         0.000         0.000
  Mass Reacted .............         0.000         0.000         0.000         0.000         0.000
  Initial Stored Mass ......         0.000         0.000         0.000         0.000         0.000
  Final Stored Mass ........       557.128       970.067        24.224         2.569        13.990
  Continuity Error (%) .....         3.040         2.901         1.654         1.166         1.431
  
  
  *************************
  Highest Continuity Errors
  *************************
  Node HS02004842 (13.41%)
  Node JK-storage (-13.24%)
  Node YS02001884 (11.06%)
  Node HS02004817 (2.53%)
  Node YSB1171 (2.46%)
  
  
  ***************************
  Time-Step Critical Elements
  ***************************
  Link WS02006252WS02006251 (71.24%)
  Link WS02006280WS02006229 (8.69%)
  Link WS02006238WS02006235 (4.03%)
  Link YS02001793JiankangQianchi (2.98%)
  Link WS02004404WS02004405 (1.73%)
  
  
  ********************************
  Highest Flow Instability Indexes
  ********************************
  Link WS02006238WS02006235 (40)
  Link YS02163601YS02164001 (38)
  Link YS02163301YS02001633 (37)
  Link YS02001629YS02163301 (37)
  Link YS02001619YS02001622 (36)
  
  
  *************************
  Routing Time Step Summary
  *************************
  Minimum Time Step           :     0.50 sec
  Average Time Step           :     1.06 sec
  Maximum Time Step           :     5.00 sec
  Percent in Steady State     :    -0.00
  Average Iterations per Step :     4.60
  Percent Not Converging      :    22.08
  
  
  ***************************
  Subcatchment Runoff Summary
  ***************************
  
  ------------------------------------------------------------------------------------------------------------------------------
                            Total      Total      Total      Total     Imperv       Perv      Total       Total     Peak  Runoff
                           Precip      Runon       Evap      Infil     Runoff     Runoff     Runoff      Runoff   Runoff   Coeff
  Subcatchment                 mm         mm         mm         mm         mm         mm         mm    10^6 ltr      LPS
  ------------------------------------------------------------------------------------------------------------------------------
  sub0                      13.45       0.00       0.00       0.63      12.47       0.31      12.77        0.01     3.75   0.950
  sub1                      13.45       0.00       0.00       1.12      11.88       0.36      12.24        0.08    25.66   0.910
  sub2                      13.45       0.00       0.00       4.44       8.39       0.53       8.92        0.08    25.29   0.663
  sub3                      13.45       0.00       0.00       4.56       8.35       0.42       8.77        0.20    55.75   0.652
  sub4                      13.45       0.00       0.00       1.22      11.71       0.26      11.97        0.25    65.52   0.890
  sub5                      13.45       0.00       0.00       0.68      12.41       0.26      12.67        0.14    44.76   0.942
  sub7                      13.45       0.00       0.00       0.86      12.18       0.35      12.53        0.04    14.26   0.931
  sub8                      13.45       0.00       0.00       0.87      12.17       0.34      12.50        0.08    26.26   0.930
  sub9                      13.45       0.00       0.00       0.88      12.17       0.33      12.50        0.06    19.64   0.929
  sub10                     13.45       0.00       0.00       0.78      12.29       0.29      12.58        0.14    44.00   0.935
  sub11                     13.45       0.00       0.00       0.77      12.30       0.31      12.61        0.15    48.45   0.938
  sub12                     13.45       0.00       0.00       1.25      11.66       0.50      12.16        0.11    38.10   0.904
  sub14                     13.45       0.00       0.00       0.88      12.16       0.33      12.49        0.12    38.67   0.929
  sub15                     13.45       0.00       0.00       3.37       9.35       0.66      10.01        0.17    57.01   0.744
  sub16                     13.45       0.00       0.00       3.56       8.97       0.88       9.85        0.10    37.63   0.732
  sub17                     13.45       0.00       0.00       3.47       9.10       0.84       9.94        0.09    30.67   0.739
  sub22                     13.45       0.00       0.00       4.98       7.63       0.81       8.43        0.53   184.54   0.627
  sub23                     13.45       0.00       0.00       4.17       8.43       0.81       9.24        0.44   154.22   0.687
  sub60                     13.45       0.00       0.00       1.53       9.85       0.09       9.93        3.01   438.14   0.738
  sub61                     13.45       0.00       0.00       2.16       9.95       0.12      10.07        3.11   536.45   0.749
  sub62                     13.45       0.00       0.00       0.98      10.84       0.10      10.94        3.36   552.35   0.813
  sub63                     13.45       0.00       0.00       3.77       8.69       0.14       8.83        2.67   492.63   0.656
  sub64                     13.45       0.00       0.00       1.93       9.45       0.09       9.54        2.90   416.72   0.709
  sub65                     13.45       0.00       0.00       1.67       9.61       0.08       9.70        2.98   423.09   0.721
  sub66                     13.45       0.00       0.00       3.81       8.10       0.09       8.18        2.51   380.66   0.608
  sub67                     13.45       0.00       0.00       0.95      11.38       0.13      11.51        3.55   679.52   0.856
  sub68                     13.45       0.00       0.00       1.75      10.45       0.13      10.59        3.26   586.26   0.787
  sub69                     13.45       0.00       0.00       1.83      10.79       0.19      10.98        2.57   544.72   0.816
  sub70                     13.45      11.20       0.00       7.51      14.65       0.88      15.52        3.55   494.81   0.630
  sub71                     13.45       0.00       0.00       0.99      10.58       0.09      10.67        2.52   389.24   0.793
  sub72                     13.45       0.00       0.00       0.89       8.56       0.05       8.61        1.75   189.18   0.640
  1                         13.45      15.11       0.00       1.37      16.56       4.63      21.19        4.98   484.42   0.742
  2                         13.45       0.00       0.00       3.02       3.21       1.96       5.17        2.07   340.45   0.384
  
  
  ****************************
  Subcatchment Washoff Summary
  ****************************
  
  ------------------------------------------------------------------------------------------
                                 COD            SS            TN            TP         NH4-N
  Subcatchment                    kg            kg            kg            kg            kg
  ------------------------------------------------------------------------------------------
  sub0                         2.670         5.197         0.046         0.004         0.022
  sub1                        11.241        22.423         0.210         0.015         0.101
  sub2                         6.894        13.384         0.145         0.010         0.067
  sub3                        16.924        32.573         0.350         0.024         0.161
  sub4                        25.772        51.904         0.510         0.031         0.245
  sub5                        25.778        50.682         0.460         0.035         0.223
  sub7                         5.751        11.638         0.108         0.007         0.052
  sub8                         8.581        17.755         0.171         0.010         0.082
  sub9                         7.353        15.005         0.142         0.009         0.068
  sub10                       21.202        42.223         0.389         0.028         0.188
  sub11                       20.657        41.614         0.386         0.026         0.187
  sub12                       17.724        35.094         0.321         0.024         0.155
  sub14                       15.732        31.800         0.298         0.020         0.144
  sub15                       20.231        39.321         0.389         0.028         0.182
  sub16                       13.129        25.518         0.249         0.019         0.117
  sub17                       12.049        23.208         0.222         0.017         0.105
  sub22                       62.582       119.432         1.186         0.090         0.554
  sub23                       36.683        72.439         0.776         0.051         0.357
  sub60                      243.519       456.960         4.842         0.298         2.321
  sub61                      302.151       564.433         5.627         0.386         2.710
  sub62                      313.721       596.075         6.119         0.388         2.938
  sub63                      223.275       410.849         4.468         0.314         2.075
  sub64                      305.875       553.771         5.626         0.410         2.687
  sub65                      313.036       569.063         5.795         0.415         2.772
  sub66                      176.068       321.339         3.608         0.236         1.687
  sub67                      466.221       877.504         8.365         0.616         4.045
  sub68                      332.036       626.412         6.347         0.429         3.034
  sub69                      298.257       568.561         5.590         0.393         2.674
  sub70                      502.894       962.298        10.037         0.699         4.710
  sub71                      206.744       396.329         4.242         0.246         2.030
  sub72                      164.383       293.104         3.069         0.210         1.476
  1                          349.066       671.590         7.101         0.495         3.297
  2                           42.749        75.577         1.214         0.073         0.518
  ------------------------------------------------------------------------------------------
  System                    4570.950      8595.075        88.407         6.057        41.983
  
  
  ******************
  Node Depth Summary
  ******************
  
  ---------------------------------------------------------------------------------
                                 Average  Maximum  Maximum  Time of Max    Reported
                                   Depth    Depth      HGL   Occurrence   Max Depth
  Node                 Type       Meters   Meters   Meters  days hr:min      Meters
  ---------------------------------------------------------------------------------
  WS02001211           JUNCTION     0.78     0.85     5.69     0  03:07        0.85
  WS02001212           JUNCTION     0.49     0.58     5.64     0  03:06        0.58
  WS02001213           JUNCTION     0.73     0.85     5.62     0  03:05        0.85
  WS02003069           JUNCTION     0.54     0.72     5.31     0  03:05        0.72
  WS02003072           JUNCTION     0.60     0.76     5.13     0  03:05        0.76
  WS02003073           JUNCTION     0.36     0.48     4.54     0  03:06        0.48
  WS02003060           JUNCTION     0.47     0.64     5.57     0  03:04        0.64
  WS02003066           JUNCTION     0.26     0.39     5.94     0  03:04        0.39
  WS02003059           JUNCTION     0.78     0.91     5.60     0  03:05        0.91
  WS02003067           JUNCTION     0.63     0.82     6.14     0  03:03        0.82
  WS02004401           JUNCTION     0.77     1.24     7.24     0  03:02        1.23
  WS02004402           JUNCTION     0.80     1.23     7.19     0  03:02        1.21
  WS02004403           JUNCTION     0.81     1.20     7.13     0  03:02        1.19
  WS02004404           JUNCTION     0.89     1.25     7.10     0  03:02        1.24
  WS02004406           JUNCTION     0.88     1.17     7.00     0  03:02        1.16
  WS02004409           JUNCTION     0.58     0.96     6.73     0  03:03        0.96
  WS02004410           JUNCTION     0.60     0.95     6.67     0  03:03        0.95
  WS02004411           JUNCTION     0.61     0.93     6.61     0  03:03        0.93
  WS02004412           JUNCTION     0.62     0.90     6.54     0  03:03        0.90
  WS02004413           JUNCTION     0.78     1.02     6.49     0  03:03        1.02
  WS02004405           JUNCTION     0.88     1.22     7.07     0  03:02        1.21
  WS02006109           JUNCTION     0.87     1.66     8.28     0  03:02        1.65
  WS02006110           JUNCTION     0.84     1.45     8.04     0  03:02        1.44
  WS02006111           JUNCTION     0.27     0.88     7.59     0  03:02        0.88
  WS02006112           JUNCTION     0.96     1.56     7.44     0  03:02        1.55
  WS02006113           JUNCTION     0.40     0.92     7.82     0  03:02        0.92
  WS02006115           JUNCTION     0.67     1.22     7.36     0  03:02        1.21
  WS02006116           JUNCTION     0.75     1.26     7.30     0  03:02        1.25
  WS02006230           JUNCTION     0.92     1.88     8.62     0  03:02        1.86
  WS02006231           JUNCTION     0.65     1.53     8.65     0  03:02        1.51
  WS02006232           JUNCTION     0.81     1.63     8.67     0  03:02        1.61
  WS02006234           JUNCTION     0.76     1.53     8.68     0  03:02        1.52
  WS02006235           JUNCTION     0.81     1.54     8.71     0  03:02        1.52
  WS02006238           JUNCTION     0.84     1.56     8.70     0  03:02        1.56
  WS02006240           JUNCTION     0.75     1.40     8.69     0  03:02        1.40
  WS02006242           JUNCTION     0.81     1.43     8.70     0  03:02        1.42
  WS02006243           JUNCTION     0.70     1.27     8.69     0  03:01        1.27
  WS02006245           JUNCTION     0.68     1.21     8.70     0  03:01        1.20
  WS02006247           JUNCTION     0.69     1.20     8.70     0  03:01        1.20
  WS02006248           JUNCTION     0.63     1.10     8.69     0  01:54        1.10
  WS02006249           JUNCTION     0.64     1.09     8.69     0  01:53        1.09
  WS02006239           JUNCTION     0.80     1.49     8.70     0  03:02        1.48
  WS02006251           JUNCTION     0.63     1.44     9.11     0  01:54        1.25
  WS02006252           JUNCTION     0.41     1.00     9.24     0  01:54        0.81
  WS02006253           JUNCTION     0.65     1.63     9.27     0  01:54        1.35
  WS02006256           JUNCTION     1.83     2.35     9.28     0  00:00        2.35
  WS02004138           JUNCTION     0.19     0.20     7.45     0  00:00        0.19
  WS02004139           JUNCTION     0.72     0.79     5.70     0  03:07        0.79
  WS02004407           JUNCTION     0.26     0.40     6.71     0  03:03        0.40
  WS02006228           JUNCTION     0.90     1.83     8.48     0  03:02        1.82
  WS02006229           JUNCTION     0.89     1.90     8.59     0  03:02        1.89
  WS02006280           JUNCTION     0.07     0.30     8.57     0  03:05        0.30
  WS02006284           JUNCTION     0.37     0.65     9.04     0  03:02        0.64
  WS02006287           JUNCTION     0.09     0.39     9.34     0  03:02        0.39
  WSF200               JUNCTION     0.26     0.44     5.67     0  03:04        0.44
  HS02004901           JUNCTION     0.12     0.38    10.20     0  03:01        0.37
  HS02004881           JUNCTION     0.01     0.05     9.08     0  03:01        0.05
  HS02004876           JUNCTION     0.04     0.16     9.19     0  03:01        0.16
  HS02004870           JUNCTION     0.01     0.09     9.38     0  03:01        0.09
  HS02004862           JUNCTION     0.02     0.11     9.49     0  03:01        0.11
  HS02004856           JUNCTION     0.08     0.15     9.58     0  03:01        0.15
  HS02004852           JUNCTION     0.01     0.07     9.59     0  03:02        0.07
  HS02004848           JUNCTION     0.01     0.07     9.67     0  03:01        0.07
  HS02004842           JUNCTION     0.33     0.40     9.67     0  03:01        0.40
  HS02004837           JUNCTION     0.03     0.09     9.67     0  03:01        0.09
  HS02004830           JUNCTION     0.04     0.10     9.57     0  03:02        0.10
  HS02004824           JUNCTION     0.02     0.13     9.53     0  03:02        0.13
  HS02004817           JUNCTION     0.44     0.69     9.54     0  03:02        0.69
  HS02004807           JUNCTION     0.12     0.36     9.53     0  03:02        0.36
  HS02004802           JUNCTION     0.16     0.39     9.52     0  03:02        0.39
  HS02004799           JUNCTION     0.12     0.46     9.68     0  03:01        0.46
  HS02004792           JUNCTION     0.03     0.22     9.74     0  03:01        0.21
  HS02004788           JUNCTION     0.02     0.16    10.05     0  03:02        0.16
  HS02004785           JUNCTION     0.04     0.25    10.15     0  03:02        0.25
  HS02004777           JUNCTION     0.15     0.39    10.19     0  03:01        0.39
  HS02004770           JUNCTION     0.12     0.37    10.20     0  03:01        0.36
  HS02004480           JUNCTION     0.08     0.38     9.62     0  03:01        0.38
  HS02004479           JUNCTION     0.11     0.42     9.62     0  03:01        0.42
  HS02004478           JUNCTION     0.06     0.28     9.50     0  03:01        0.28
  YS02001745           JUNCTION     0.72     0.90     8.42     0  03:32        0.90
  YS02001748           JUNCTION     1.11     2.27     9.35     0  02:40        1.33
  YS02001751           JUNCTION     1.30     2.17     9.05     0  02:40        1.53
  YS02001754           JUNCTION     1.55     2.08     8.68     0  02:40        1.81
  YS02001762           JUNCTION     1.75     2.03     8.43     0  03:36        2.02
  YS02001765           JUNCTION     1.70     1.98     8.43     0  03:06        1.96
  YS02001767           JUNCTION     1.67     1.94     8.42     0  03:35        1.92
  YS02001770           JUNCTION     1.66     1.92     8.41     0  03:39        1.90
  YS02001774           JUNCTION     1.73     1.98     8.40     0  03:32        1.97
  YS02001779           JUNCTION     1.48     1.68     8.37     0  02:40        1.68
  YS02001882           JUNCTION     0.54     1.64     8.35     0  03:00        1.63
  YS02001884           JUNCTION     0.63     1.74     8.35     0  03:00        1.73
  YS02001759           JUNCTION     1.79     2.07     8.44     0  03:06        2.06
  YS02001887           JUNCTION     0.71     1.81     8.35     0  03:00        1.81
  YS02001890           JUNCTION     0.74     1.81     8.32     0  02:45        1.81
  YS02001898           JUNCTION     0.51     1.56     8.30     0  03:05        1.56
  YS02001901           JUNCTION     0.63     1.68     8.29     0  03:05        1.67
  YS02001904           JUNCTION     0.60     1.64     8.27     0  02:56        1.63
  YS02001907           JUNCTION     0.94     1.96     8.25     0  02:45        1.96
  YS02001910           JUNCTION     0.73     1.78     8.29     0  02:46        1.77
  YS02001915           JUNCTION     0.52     1.60     8.32     0  02:46        1.58
  YS02001918           JUNCTION     0.27     1.29     8.35     0  02:46        1.24
  YS02001619           JUNCTION     1.26     1.61     8.54     0  02:39        1.48
  YS02001629           JUNCTION     1.62     1.85     8.40     0  02:40        1.84
  YS02001641           JUNCTION     1.72     1.94     8.37     0  06:43        1.93
  YS02001644           JUNCTION     1.72     1.92     8.35     0  02:45        1.92
  YS02001652           JUNCTION     1.56     2.07     8.66     0  03:55        1.93
  YS02001655           JUNCTION     1.32     2.04     8.89     0  03:55        1.76
  YS02001920           JUNCTION     0.37     1.36     8.37     0  02:46        1.31
  YS02001923           JUNCTION     0.21     1.13     8.39     0  02:46        1.06
  YS02001926           JUNCTION     0.28     0.93     8.38     0  02:46        0.91
  YS02001929           JUNCTION     0.16     0.69     8.38     0  02:46        0.69
  YS02001658           JUNCTION     1.06     1.97     9.11     0  03:55        1.55
  YS02001661           JUNCTION     0.83     2.00     9.40     0  03:52        1.55
  YS02001664           JUNCTION     0.37     0.58     8.51     0  02:52        0.56
  YS02001622           JUNCTION     1.28     1.62     8.52     0  02:39        1.50
  YS02001633           JUNCTION     1.71     1.95     8.40     0  06:43        1.94
  YS02001649           JUNCTION     1.76     2.05     8.44     0  02:52        2.05
  YS02001757           JUNCTION     1.88     2.18     8.44     0  03:37        2.16
  YS02001895           JUNCTION     0.50     1.57     8.31     0  03:10        1.56
  YS02001625           JUNCTION     1.57     1.78     8.38     0  02:38        1.78
  YS02163301           JUNCTION     1.65     1.88     8.40     0  06:43        1.88
  YS02163601           JUNCTION     1.76     1.99     8.39     0  06:43        1.98
  YS02164001           JUNCTION     1.70     1.93     8.39     0  06:43        1.92
  YS02001647           JUNCTION     1.55     1.80     8.41     0  03:57        1.79
  YSB1154              JUNCTION     0.26     0.57     9.62     0  03:01        0.57
  YSB6556              JUNCTION     0.15     0.45     9.62     0  03:02        0.45
  YSB1174              JUNCTION     0.21     0.52     9.62     0  03:01        0.51
  YSB1171              JUNCTION     0.41     0.72     9.62     0  03:01        0.72
  YS02006553           JUNCTION     0.94     1.97     8.26     0  02:59        1.96
  YS02006561           JUNCTION     0.30     1.08     7.74     0  03:00        1.07
  YS02006556           JUNCTION     0.91     1.93     8.25     0  03:01        1.93
  YS02006558           JUNCTION     0.95     1.98     8.24     0  03:00        1.97
  YS02001783           JUNCTION     0.52     2.40     8.54     0  02:28        1.46
  YS02001784           JUNCTION     0.54     2.04     8.10     0  02:28        1.41
  YS02001786           JUNCTION     0.48     1.64     7.67     0  02:28        1.25
  YS02001788           JUNCTION     0.41     1.74     7.71     0  02:28        1.12
  YS02001790           JUNCTION     0.54     1.96     7.60     0  02:27        1.37
  YS02001791           JUNCTION     0.50     2.66     8.13     0  02:27        1.27
  YS02001793           JUNCTION     0.70     3.60     8.43     0  02:26        1.80
  WSC                  OUTFALL      0.36     0.48     1.15     0  03:06        0.48
  JK-storage           STORAGE      2.76     5.80     6.60     0  02:28        5.80
  CC-storage           STORAGE      1.13     1.40     8.40     0  03:34        1.40
  XR-storage           STORAGE      6.67     7.72     5.72     0  02:59        7.72
  
  
  *******************
  Node Inflow Summary
  *******************
  
  -------------------------------------------------------------------------------------------------
                                  Maximum  Maximum                  Lateral       Total        Flow
                                  Lateral    Total  Time of Max      Inflow      Inflow     Balance
                                   Inflow   Inflow   Occurrence      Volume      Volume       Error
  Node                 Type           LPS      LPS  days hr:min    10^6 ltr    10^6 ltr     Percent
  -------------------------------------------------------------------------------------------------
  WS02001211           JUNCTION      7.35   390.36     0  03:16       0.207        10.1       0.405
  WS02001212           JUNCTION      0.00   393.32     0  03:16           0          10       0.246
  WS02001213           JUNCTION      0.00   395.87     0  03:15           0          10       0.291
  WS02003069           JUNCTION      0.32  1334.82     0  03:05     0.00902        21.4       0.173
  WS02003072           JUNCTION      0.00  1334.49     0  03:05           0        21.4       0.206
  WS02003073           JUNCTION      1.82  1336.33     0  03:06      0.0513        21.4       0.240
  WS02003060           JUNCTION     16.53  1334.73     0  03:04       0.466        21.5       0.162
  WS02003066           JUNCTION      0.00   938.18     0  03:04           0        11.1       0.045
  WS02003059           JUNCTION      0.00   398.83     0  03:15           0        9.99       0.410
  WS02003067           JUNCTION      0.00   937.72     0  03:04           0        11.1       0.091
  WS02004401           JUNCTION      0.00   939.68     0  03:02           0        11.3       0.196
  WS02004402           JUNCTION      0.00   940.18     0  03:03           0        11.3       0.184
  WS02004403           JUNCTION      0.00   939.45     0  03:03           0        11.3       0.167
  WS02004404           JUNCTION      0.16   940.04     0  03:03     0.00457        11.3       0.125
  WS02004406           JUNCTION      0.00   939.63     0  03:02           0        11.2       0.308
  WS02004409           JUNCTION      0.00   938.92     0  03:03           0        11.2       0.160
  WS02004410           JUNCTION      0.00   937.93     0  03:03           0        11.2       0.181
  WS02004411           JUNCTION      0.00   937.50     0  03:03           0        11.1       0.185
  WS02004412           JUNCTION      0.00   937.16     0  03:03           0        11.1       0.198
  WS02004413           JUNCTION      0.00   937.64     0  03:04           0        11.1       0.291
  WS02004405           JUNCTION      0.04   940.28     0  03:03     0.00107        11.2       0.189
  WS02006109           JUNCTION      1.23   915.44     0  03:02      0.0347        11.4       0.174
  WS02006110           JUNCTION      0.00   915.35     0  03:03           0        11.3       0.165
  WS02006111           JUNCTION      0.00   915.53     0  03:03           0        11.3       0.034
  WS02006112           JUNCTION     30.67   939.31     0  03:02      0.0853        11.4       0.272
  WS02006113           JUNCTION      0.00   915.35     0  03:02           0        11.3       0.089
  WS02006115           JUNCTION      0.00   939.17     0  03:03           0        11.4       0.188
  WS02006116           JUNCTION      0.00   939.53     0  03:02           0        11.3       0.153
  WS02006230           JUNCTION     10.28   532.59     0  07:00        0.29        8.93       0.147
  WS02006231           JUNCTION      0.00   522.19     0  07:01           0        8.65       0.111
  WS02006232           JUNCTION      0.00   522.27     0  07:00           0        8.66       0.187
  WS02006234           JUNCTION      0.00   522.56     0  07:00           0        8.67       0.082
  WS02006235           JUNCTION      0.00   523.46     0  07:00           0        8.72       0.120
  WS02006238           JUNCTION      0.00   413.23     0  06:00           0        5.26       0.125
  WS02006240           JUNCTION      0.00   413.07     0  06:00           0        5.24       0.182
  WS02006242           JUNCTION      0.00   412.85     0  06:00           0        5.24       0.198
  WS02006243           JUNCTION      0.00   413.12     0  06:00           0        5.22      -0.044
  WS02006245           JUNCTION      0.00   413.77     0  06:00           0        5.22       0.133
  WS02006247           JUNCTION      0.00   416.01     0  01:53           0        5.22       0.035
  WS02006248           JUNCTION      0.00   423.83     0  01:53           0        5.22      -0.019
  WS02006249           JUNCTION      0.00   535.90     0  03:00           0        6.29       0.034
  WS02006239           JUNCTION      0.00   412.93     0  06:00           0        5.25       0.033
  WS02006251           JUNCTION      0.08   536.56     0  03:00     0.00217        6.35       0.001
  WS02006252           JUNCTION      0.00   400.00     0  01:50           0        5.82       0.004
  WS02006253           JUNCTION      3.75   171.24     0  01:54      0.0103       0.527      -0.055
  WS02006256           JUNCTION      0.00   983.00     0  02:50           0        10.4      -0.006
  WS02004138           JUNCTION      0.00   380.00     0  00:00           0        9.92       0.064
  WS02004139           JUNCTION      0.32   395.85     0  00:00     0.00905        9.92       0.463
  WS02004407           JUNCTION      0.00   939.34     0  03:02           0        11.2       0.069
  WS02006228           JUNCTION      0.00   914.31     0  03:02           0        11.3       0.133
  WS02006229           JUNCTION      0.00   916.55     0  03:02           0        11.3       0.117
  WS02006280           JUNCTION      0.00   680.21     0  03:02           0        2.43       0.003
  WS02006284           JUNCTION      0.10   679.07     0  03:02      0.0027        2.43       0.048
  WS02006287           JUNCTION      0.00   677.71     0  03:02           0        2.43       0.029
  WSF200               JUNCTION      0.00   938.32     0  03:04           0        11.1       0.042
  HS02004901           JUNCTION     37.63    37.63     0  03:01       0.103       0.103       1.738
  HS02004881           JUNCTION     14.26   140.55     0  03:01      0.0422       0.463       0.063
  HS02004876           JUNCTION     25.66   127.65     0  03:01      0.0814       0.422       0.133
  HS02004870           JUNCTION     26.26   103.58     0  03:01      0.0799        0.34       0.033
  HS02004862           JUNCTION     25.49    79.37     0  03:01      0.0888       0.261       0.068
  HS02004856           JUNCTION     19.64    55.41     0  03:01      0.0601       0.173       0.844
  HS02004852           JUNCTION      0.00    37.85     0  03:01           0       0.113       0.053
  HS02004848           JUNCTION     55.75    55.75     0  03:01       0.197       0.197       0.026
  HS02004842           JUNCTION      0.00    16.84     0  03:01           0       0.097      15.491
  HS02004837           JUNCTION     50.35    65.70     0  03:01       0.318       0.402       0.203
  HS02004830           JUNCTION      0.15    64.80     0  03:01     0.00423       0.392       0.316
  HS02004824           JUNCTION     65.57   128.45     0  03:01       0.251       0.642       0.085
  HS02004817           JUNCTION      0.60   124.47     0  03:01      0.0169       0.658       2.600
  HS02004807           JUNCTION     48.45   165.77     0  03:01       0.147       0.788       0.553
  HS02004802           JUNCTION      0.00   165.31     0  03:04           0       0.785       0.507
  HS02004799           JUNCTION     38.67   446.07     0  03:01       0.119        1.42       0.191
  HS02004792           JUNCTION    184.82   411.87     0  03:01        0.54         1.3       0.032
  HS02004788           JUNCTION     58.68   233.42     0  03:02       0.219       0.758       0.052
  HS02004785           JUNCTION      0.15   182.21     0  03:01     0.00423        0.54       0.093
  HS02004777           JUNCTION      0.03   185.02     0  03:01    0.000846       0.541       0.971
  HS02004770           JUNCTION    154.22   188.96     0  03:01       0.441       0.542       0.576
  HS02004480           JUNCTION      0.00   517.25     0  03:01           0        1.66       0.071
  HS02004479           JUNCTION      0.00    75.44     0  03:02           0       0.258       0.286
  HS02004478           JUNCTION      0.00   677.12     0  03:02           0        2.43       0.012
  YS02001745           JUNCTION    438.14   438.14     0  03:01        3.01        3.02       0.381
  YS02001748           JUNCTION      0.04   622.28     0  02:40     0.00127        3.01       0.735
  YS02001751           JUNCTION      0.01   445.90     0  03:01     0.00031        2.98       0.768
  YS02001754           JUNCTION      0.26   446.72     0  03:01     0.00733        2.96       0.858
  YS02001762           JUNCTION      0.00   384.54     0  02:50           0        2.03       1.063
  YS02001765           JUNCTION      0.00   384.55     0  02:50           0        2.03       1.214
  YS02001767           JUNCTION      0.54   384.91     0  02:50      0.0151        2.06       1.765
  YS02001770           JUNCTION    552.50   552.50     0  03:01        3.37        3.58       0.887
  YS02001774           JUNCTION      0.00   455.68     0  03:37           0        1.72       1.468
  YS02001779           JUNCTION      0.01   456.17     0  03:36    0.000141        1.69       0.932
  YS02001882           JUNCTION      0.00    22.94     0  02:31           0      0.0194      14.346
  YS02001884           JUNCTION      0.00    53.27     0  02:30           0      0.0589      12.434
  YS02001759           JUNCTION    536.49   768.65     0  02:51        3.11         4.9       0.468
  YS02001887           JUNCTION    679.97   680.06     0  03:01        3.56         3.6       0.248
  YS02001890           JUNCTION      0.00   680.19     0  03:01           0        3.55       0.274
  YS02001898           JUNCTION      0.00   518.65     0  03:07           0        3.45       0.103
  YS02001901           JUNCTION      0.00   519.01     0  03:10           0        3.44       0.213
  YS02001904           JUNCTION      0.00   518.43     0  03:08           0        3.44       0.198
  YS02001907           JUNCTION      0.00  1096.91     0  03:02           0        7.76       0.324
  YS02001910           JUNCTION      0.00   580.38     0  03:02           0        4.34       0.282
  YS02001915           JUNCTION    389.26   579.77     0  03:02        2.52        4.37       0.151
  YS02001918           JUNCTION      0.00   234.15     0  02:47           0        1.86       0.115
  YS02001619           JUNCTION    380.66   380.66     0  03:01        2.51        2.51       0.485
  YS02001629           JUNCTION      0.00   227.11     0  02:45           0        1.63       1.806
  YS02001641           JUNCTION      0.00   478.16     0  02:45           0        4.49       0.471
  YS02001644           JUNCTION    416.76  1200.42     0  03:35         2.9        9.95       0.272
  YS02001652           JUNCTION      0.00   519.85     0  03:02           0        2.63       0.888
  YS02001655           JUNCTION      0.15   518.91     0  03:02     0.00434        2.66       0.931
  YS02001920           JUNCTION      2.87   232.89     0  02:47      0.0809        1.85       0.172
  YS02001923           JUNCTION      0.04   229.88     0  02:47     0.00106        1.76       0.056
  YS02001926           JUNCTION      0.05   199.80     0  03:01     0.00147        1.76       0.189
  YS02001929           JUNCTION    189.18   189.18     0  03:01        1.75        1.75       0.035
  YS02001658           JUNCTION      0.00   639.50     0  02:38           0        2.68       0.847
  YS02001661           JUNCTION      0.00   728.61     0  02:52           0        3.15      -0.412
  YS02001664           JUNCTION    492.63   492.63     0  03:01        2.67        3.15       0.227
  YS02001622           JUNCTION      0.00   380.08     0  03:01           0         2.5       1.292
  YS02001633           JUNCTION    423.29   478.89     0  02:45        2.99        4.56       0.708
  YS02001649           JUNCTION      0.00  1009.99     0  02:46           0        5.96       0.628
  YS02001757           JUNCTION      0.00  1957.68     0  02:46           0        10.9       0.848
  YS02001895           JUNCTION      0.00   518.57     0  03:07           0        3.45       0.156
  YS02001625           JUNCTION      0.00   406.67     0  03:01           0        2.47       1.582
  YS02163301           JUNCTION      0.00   240.06     0  02:39           0        1.61       1.518
  YS02163601           JUNCTION      0.11   478.24     0  02:44      0.0031        4.52       0.670
  YS02164001           JUNCTION      0.00   478.30     0  02:45           0        4.49       0.452
  YS02001647           JUNCTION      0.00   724.96     0  02:45           0        4.75       0.595
  YSB1154              JUNCTION     44.76    44.76     0  03:01       0.144       0.144       1.014
  YSB6556              JUNCTION      0.00    43.27     0  03:01           0       0.145       0.870
  YSB1174              JUNCTION     38.10    38.10     0  03:01       0.106       0.107       1.220
  YSB1171              JUNCTION      0.00    76.92     0  03:01           0       0.257       2.524
  YS02006553           JUNCTION      0.00   707.80     0  03:46           0        6.68       0.238
  YS02006561           JUNCTION      0.00   983.57     0  03:00           0         9.9       0.009
  YS02006556           JUNCTION      0.00   708.06     0  03:45           0        6.68       0.180
  YS02006558           JUNCTION    587.14   985.01     0  03:00        3.28        9.93       0.053
  YS02001783           JUNCTION      0.00   983.91     0  02:59           0         9.9       0.026
  YS02001784           JUNCTION      1.06   984.78     0  03:00      0.0299        9.93       0.040
  YS02001786           JUNCTION      0.06   984.66     0  03:00     0.00159        9.93       0.037
  YS02001788           JUNCTION      0.07   984.52     0  03:00       0.002        9.93       0.025
  YS02001790           JUNCTION      0.15   984.82     0  03:00     0.00437        9.93       0.019
  YS02001791           JUNCTION      0.00   984.93     0  03:01           0        9.93       0.018
  YS02001793           JUNCTION      0.00   985.45     0  03:00           0        9.93       0.005
  WSC                  OUTFALL       0.00  1336.33     0  03:06           0        21.4       0.000
  JK-storage           STORAGE       0.00   985.28     0  03:01           0        10.1     -11.696
  CC-storage           STORAGE       0.00  1957.02     0  02:46           0         9.6      -0.296
  XR-storage           STORAGE    1024.87  1024.87     0  03:01        12.7        13.3      -0.006
  
  
  **********************
  Node Surcharge Summary
  **********************
  
  Surcharging occurs when water rises above the top of the highest conduit.
  ---------------------------------------------------------------------
                                               Max. Height   Min. Depth
                                   Hours       Above Crown    Below Rim
  Node                 Type      Surcharged         Meters       Meters
  ---------------------------------------------------------------------
  WS02004401           JUNCTION        1.09          0.237        1.423
  WS02004402           JUNCTION        1.23          0.230        1.510
  WS02004403           JUNCTION        1.26          0.205        1.825
  WS02004404           JUNCTION        1.51          0.248        2.532
  WS02004406           JUNCTION        1.48          0.165        2.285
  WS02004413           JUNCTION        0.22          0.023        2.177
  WS02004405           JUNCTION        1.50          0.220        2.580
  WS02006109           JUNCTION        4.79          0.841        0.979
  WS02006110           JUNCTION        2.37          0.540        1.310
  WS02006111           JUNCTION        0.13          0.075        1.795
  WS02006112           JUNCTION        2.90          0.559        1.121
  WS02006113           JUNCTION        0.16          0.123        1.807
  WS02006115           JUNCTION        0.64          0.209        2.041
  WS02006116           JUNCTION        0.67          0.201        2.089
  WS02006230           JUNCTION        2.17          0.796        0.774
  WS02006231           JUNCTION        2.72          0.818        0.712
  WS02006232           JUNCTION        4.87          0.927        0.553
  WS02006234           JUNCTION        4.43          0.805        0.435
  WS02006235           JUNCTION        4.74          0.833        0.457
  WS02006238           JUNCTION        4.80          0.839        0.591
  WS02006240           JUNCTION        4.41          0.691        0.699
  WS02006242           JUNCTION        4.55          0.701        0.119
  WS02006243           JUNCTION        3.51          0.565        0.205
  WS02006245           JUNCTION        3.15          0.503        0.347
  WS02006247           JUNCTION        3.18          0.490        0.270
  WS02006248           JUNCTION        2.75          0.380        0.000
  WS02006249           JUNCTION        2.84          0.390        0.000
  WS02006239           JUNCTION        4.52          0.752        0.538
  WS02006251           JUNCTION        1.97          0.410        0.770
  WS02006252           JUNCTION        3.47          0.601        0.499
  WS02006253           JUNCTION        2.02          0.590        1.890
  WS02006256           JUNCTION        6.84          2.050        0.000
  WS02006228           JUNCTION        4.77          1.002        1.198
  YS02001748           JUNCTION        5.11          1.190        0.000
  YS02001751           JUNCTION        5.20          1.167        0.033
  YS02001754           JUNCTION        5.37          1.026        0.124
  YS02001762           JUNCTION        5.74          1.034        0.116
  YS02001765           JUNCTION        5.71          0.982        0.118
  YS02001767           JUNCTION        5.54          0.935        0.095
  YS02001770           JUNCTION        5.51          0.888        0.032
  YS02001774           JUNCTION        5.73          0.976        0.074
  YS02001779           JUNCTION        5.36          0.680        0.000
  YS02001882           JUNCTION        1.12          0.637        0.193
  YS02001884           JUNCTION        1.14          0.677        0.193
  YS02001759           JUNCTION        5.77          1.071        0.139
  YS02001887           JUNCTION        1.21          0.764        0.186
  YS02001890           JUNCTION        1.24          0.760        0.000
  YS02001898           JUNCTION        1.09          0.532        0.208
  YS02001901           JUNCTION        1.18          0.677        0.193
  YS02001904           JUNCTION        1.16          0.637        0.213
  YS02001907           JUNCTION        1.90          0.950        0.000
  YS02001910           JUNCTION        1.28          0.781        0.319
  YS02001915           JUNCTION        1.11          0.597        0.403
  YS02001918           JUNCTION        0.94          0.285        0.525
  YS02001619           JUNCTION        5.23          0.610        0.000
  YS02001629           JUNCTION        5.23          0.470        0.000
  YS02001641           JUNCTION        5.72          0.936        0.164
  YS02001644           JUNCTION        5.72          0.920        0.000
  YS02001652           JUNCTION        5.47          1.037        0.093
  YS02001655           JUNCTION        5.24          1.038        0.162
  YS02001920           JUNCTION        0.96          0.364        0.776
  YS02001658           JUNCTION        5.13          0.971        0.329
  YS02001661           JUNCTION        0.23          0.928        0.462
  YS02001622           JUNCTION        5.25          0.620        0.000
  YS02001633           JUNCTION        5.69          0.927        0.133
  YS02001649           JUNCTION        5.75          1.050        0.000
  YS02001757           JUNCTION        5.86          1.180        0.030
  YS02001895           JUNCTION        1.10          0.566        0.184
  YS02001625           JUNCTION        5.48          0.780        0.000
  YS02163301           JUNCTION        5.54          0.885        0.145
  YS02163601           JUNCTION        5.75          0.995        0.085
  YS02164001           JUNCTION        5.70          0.927        0.173
  YS02001647           JUNCTION        5.47          0.801        0.099
  YS02006553           JUNCTION        1.96          0.971        0.219
  YS02006561           JUNCTION        0.99          0.284        0.866
  YS02006556           JUNCTION        1.51          0.894        0.456
  YS02006558           JUNCTION        1.46          0.876        0.524
  YS02001783           JUNCTION        1.38          1.600        0.000
  YS02001784           JUNCTION        1.36          1.236        0.254
  YS02001786           JUNCTION        1.30          0.838        0.592
  YS02001788           JUNCTION        1.25          0.936        0.544
  YS02001790           JUNCTION        2.11          1.157        0.000
  YS02001791           JUNCTION        2.21          1.864        0.056
  YS02001793           JUNCTION        2.48          2.600        0.000
  
  
  *********************
  Node Flooding Summary
  *********************
  
  Flooding refers to all water that overflows a node, whether it ponds or not.
  --------------------------------------------------------------------------
                                                             Total   Maximum
                                 Maximum   Time of Max       Flood    Ponded
                        Hours       Rate    Occurrence      Volume     Depth
  Node                 Flooded       LPS   days hr:min    10^6 ltr    Meters
  --------------------------------------------------------------------------
  WS02006248              0.08     18.18      0  01:54       0.002     0.000
  WS02006249              1.91    423.12      0  03:01       1.075     0.000
  WS02006256              4.23    830.97      0  03:02       6.856     0.000
  YS02001748              0.01    138.69      0  02:40       0.000     0.000
  YS02001779              2.62    456.06      0  03:36       1.671     0.000
  YS02001890              0.34    164.02      0  03:01       0.085     0.000
  YS02001907              0.81    699.41      0  03:01       1.072     0.000
  YS02001619              0.01     18.71      0  02:39       0.000     0.000
  YS02001629              0.01     16.03      0  02:40       0.000     0.000
  YS02001644              4.27   1200.33      0  03:35       7.744     0.000
  YS02001622              0.01     22.11      0  02:39       0.000     0.000
  YS02001649              0.05     31.84      0  04:14       0.002     0.000
  YS02001625              1.33    406.66      0  03:01       0.817     0.000
  YS02001783              0.01    151.11      0  02:28       0.000     0.000
  YS02001790              0.01    228.93      0  02:27       0.000     0.000
  YS02001793              0.01    439.47      0  02:26       0.000     0.000
  JK-storage              0.93    688.16      0  02:29       1.052     0.000
  XR-storage              3.46    644.67      0  03:01       2.614     0.000
  
  
  **********************
  Storage Volume Summary
  **********************
  
  --------------------------------------------------------------------------------------------------
                         Average     Avg  Evap Exfil       Maximum     Max    Time of Max    Maximum
                          Volume    Pcnt  Pcnt  Pcnt        Volume    Pcnt     Occurrence    Outflow
  Storage Unit           1000 m3    Full  Loss  Loss       1000 m3    Full    days hr:min        LPS
  --------------------------------------------------------------------------------------------------
  JK-storage               0.139      48     0     0         0.291     100       0  02:28     983.00
  CC-storage               3.136      20     0     0         3.912      25       0  03:34     400.00
  XR-storage               0.801      86     0     0         0.926     100       0  02:59     380.00
  
  
  ***********************
  Outfall Loading Summary
  ***********************
  
  ---------------------------------------------------------------------------------------------------------------------------------
                         Flow       Avg       Max       Total         Total         Total         Total         Total         Total
                         Freq      Flow      Flow      Volume           COD            SS            TN            TP         NH4-N
  Outfall Node           Pcnt       LPS       LPS    10^6 ltr            kg            kg            kg            kg            kg
  ---------------------------------------------------------------------------------------------------------------------------------
  WSC                   99.98    827.86   1336.33      21.359      2508.810      4364.317       151.350        17.622        91.097
  ---------------------------------------------------------------------------------------------------------------------------------
  System                99.98    827.86   1336.33      21.359      2508.810      4364.317       151.350        17.622        91.097
  
  
  ********************
  Link Flow Summary
  ********************
  
  -----------------------------------------------------------------------------
                                 Maximum  Time of Max   Maximum    Max/    Max/
                                  |Flow|   Occurrence   |Veloc|    Full    Full
  Link                 Type          LPS  days hr:min     m/sec    Flow   Depth
  -----------------------------------------------------------------------------
  WS02003066WSF200     CONDUIT    938.32     0  03:04      3.00    0.16    0.32
  WS02006287WS02006284 CONDUIT    678.98     0  03:02      2.38    0.31    0.39
  WS02006284WS02006280 CONDUIT    680.21     0  03:02      2.62    0.28    0.37
  WS02006280WS02006229 CONDUIT    680.27     0  03:02      3.41    0.15    0.50
  WS02006229WS02006228 CONDUIT    914.31     0  03:02      1.82    3.03    1.00
  WS02006256WS02006235 CONDUIT    288.92     0  00:00      4.23    3.06    1.00
  WS02006253WS02006251 CONDUIT    144.54     0  03:01      0.44    0.43    1.00
  WS02006252WS02006251 CONDUIT    405.96     0  01:54      3.23    1.49    1.00
  WS02006251WS02006249 CONDUIT    535.90     0  03:00      1.39    1.55    1.00
  WS02006249WS02006248 CONDUIT    423.83     0  01:53      1.24    2.32    1.00
  WS02006248WS02006247 CONDUIT    416.01     0  01:53      1.22    0.91    1.00
  WS02006247WS02006245 CONDUIT    413.77     0  06:00      1.20    3.28    1.00
  WS02006245WS02006243 CONDUIT    413.12     0  06:00      1.26    1.22    1.00
  WS02006243WS02006242 CONDUIT    412.85     0  06:00      1.14    0.88    1.00
  WS02006242WS02006240 CONDUIT    413.07     0  06:00      1.07    1.64    1.00
  WS02006240WS02006239 CONDUIT    412.93     0  06:00      1.15    1.30    1.00
  WS02006239WS02006238 CONDUIT    413.23     0  06:00      1.07    1.32    1.00
  WS02006238WS02006235 CONDUIT    414.80     0  06:00      1.45    0.93    1.00
  WS02006235WS02006234 CONDUIT    522.56     0  07:00      1.36    5.51    1.00
  WS02006234WS02006232 CONDUIT    522.27     0  07:00      1.39    1.06    1.00
  WS02006232WS02006231 CONDUIT    522.19     0  07:01      1.36    1.09    1.00
  WS02006231WS02006230 CONDUIT    522.31     0  07:00      1.38    7.92    1.00
  WS02006230WS02006229 CONDUIT    532.43     0  07:00      1.38   11.85    1.00
  WS02006228WS02006109 CONDUIT    914.21     0  03:02      1.82    3.99    1.00
  WS02006116WS02004401 CONDUIT    939.68     0  03:02      1.20    1.30    1.00
  WS02006115WS02006116 CONDUIT    939.53     0  03:02      1.20    1.21    1.00
  WS02006113WS02006111 CONDUIT    915.53     0  03:03      2.67    1.10    1.00
  WS02006112WS02006115 CONDUIT    939.17     0  03:03      1.20    0.55    1.00
  WS02006111WS02006112 CONDUIT    915.76     0  03:03      1.82    0.44    1.00
  WS02006110WS02006113 CONDUIT    915.35     0  03:02      1.82    0.83    1.00
  WS02006109WS02006110 CONDUIT    915.35     0  03:03      1.82    1.76    1.00
  WS02004411WS02004412 CONDUIT    937.16     0  03:03      1.24    1.33    0.92
  WS02004401WS02004402 CONDUIT    940.18     0  03:03      1.20    1.13    1.00
  WS02004413WS02003067 CONDUIT    937.72     0  03:04      1.55    0.40    0.72
  WS02004412WS02004413 CONDUIT    937.64     0  03:04      1.22    0.63    0.95
  WS02004410WS02004411 CONDUIT    937.50     0  03:03      1.23    1.28    0.94
  WS02004409WS02004410 CONDUIT    937.93     0  03:03      1.21    1.21    0.95
  WS02004407WS02004409 CONDUIT    938.92     0  03:03      1.66    0.33    0.68
  WS02004406WS02004407 CONDUIT    939.34     0  03:02      1.60    0.42    0.70
  WS02004405WS02004406 CONDUIT    939.63     0  03:02      1.20    1.85    1.00
  WS02004404WS02004405 CONDUIT    940.24     0  03:03      1.20    9.21    1.00
  WS02004403WS02004404 CONDUIT    939.88     0  03:03      1.20    0.68    1.00
  WS02004402WS02004403 CONDUIT    939.45     0  03:03      1.20    1.35    1.00
  WS02004139WS02001211 CONDUIT    383.01     0  03:16      0.90    0.48    0.64
  WS02004138WS02004139 CONDUIT    395.52     0  00:00      3.64    0.08    0.47
  WS02003067WS02003066 CONDUIT    938.18     0  03:04      1.65    0.30    0.50
  WS02001213WS02003059 CONDUIT    398.83     0  03:15      0.89    0.66    0.87
  WS02001212WS02001213 CONDUIT    395.87     0  03:15      1.32    0.61    0.56
  WS02001211WS02001212 CONDUIT    393.32     0  03:16      0.78    0.30    0.71
  WS02003072WS02003073 CONDUIT   1334.51     0  03:06      1.96    2.88    0.58
  WS02003069WS02003072 CONDUIT   1334.49     0  03:05      1.82    0.64    0.62
  WS02003060WS02003069 CONDUIT   1334.50     0  03:05      2.03    0.52    0.56
  WS02003059WS02003060 CONDUIT    402.39     0  03:15      0.95    0.26    0.77
  HS02004901HS02004770 CONDUIT     37.23     0  03:01      0.10    0.14    0.53
  HS02004876HS02004881 CONDUIT    127.65     0  03:01      1.21    1.36    0.15
  HS02004870HS02004876 CONDUIT    103.11     0  03:01      0.82    0.07    0.18
  HS02004842HS02004848 CONDUIT     16.84     0  03:01      0.07    0.01    0.33
  HS02004837HS02004842 CONDUIT     17.91     0  03:03      0.42    0.01    0.35
  HS02004830HS02004837 CONDUIT     64.65     0  03:01      0.67    0.06    0.14
  HS02004824HS02004830 CONDUIT     64.13     0  03:02      0.62    0.08    0.16
  HS02004817HS02004824 CONDUIT    123.87     0  03:01      0.31    0.06    0.58
  HS02004770HS02004777 CONDUIT    184.99     0  03:01      0.49    0.34    0.54
  HS02004799HS02004480 CONDUIT    444.37     0  03:01      1.07    0.56    0.60
  HS02004792HS02004799 CONDUIT    408.48     0  03:01      1.20    0.25    0.49
  HS02004788HS02004792 CONDUIT    232.95     0  03:02      1.28    0.15    0.26
  HS02004785HS02004788 CONDUIT    181.79     0  03:02      0.91    1.37    0.29
  HS02004777HS02004785 CONDUIT    182.06     0  03:01      0.57    0.22    0.45
  HS02004480HS02004478 CONDUIT    517.39     0  03:01      1.55    2.18    0.48
  HS02004479HS02004480 CONDUIT     77.33     0  03:02      0.30    0.07    0.57
  HS02004862HS02004870 CONDUIT     79.03     0  03:01      0.80    0.09    0.14
  HS02004848HS02004852 CONDUIT     37.85     0  03:01      0.53    0.04    0.10
  HS02004856HS02004862 CONDUIT     54.77     0  03:01      0.59    0.05    0.13
  HS02004852HS02004856 CONDUIT     37.76     0  03:02      0.34    0.04    0.16
  HS02004802HS02004478 CONDUIT    170.17     0  03:04      0.54    0.15    0.48
  HS02004478WS02006287 CONDUIT    677.71     0  03:02      2.11    0.19    0.36
  HS02004817HS02004807 CONDUIT    128.13     0  03:04      0.25    0.08    0.75
  HS02004807HS02004802 CONDUIT    165.31     0  03:04      0.46    0.32    0.53
  YS02001759YS02001757 CONDUIT    768.92     0  02:52      0.98    0.55    1.00
  YS02001762YS02001759 CONDUIT    384.27     0  02:50      0.49    0.44    1.00
  YS02001765YS02001762 CONDUIT    384.54     0  02:50      0.49    0.36    1.00
  YS02001770YS02001767 CONDUIT    384.38     0  02:50      0.49    1.52    1.00
  YS02001774YS02001770 CONDUIT    455.68     0  03:37      0.58    0.29    1.00
  YS02001779YS02001774 CONDUIT    456.17     0  03:36      0.58    0.23    1.00
  YS02001649YS02001757 CONDUIT   1009.96     0  02:46      1.29    0.61    1.00
  YS02001767YS02001765 CONDUIT    384.55     0  02:50      0.49    0.48    1.00
  YS02006561YS02001783 CONDUIT    983.91     0  02:59      2.15    0.51    1.00
  YS02001783YS02001784 CONDUIT    983.72     0  03:00      1.96    1.36    1.00
  YS02001784YS02001785 CONDUIT    984.60     0  03:00      1.96    2.29    1.00
  YS02001788YS02001790 CONDUIT    984.67     0  03:00      2.44    0.73    1.00
  YS02001790YS02001791 CONDUIT    984.93     0  03:01      2.91    1.07    1.00
  YS02001791YS02001793 CONDUIT    985.45     0  03:00      5.77    0.42    1.00
  YS02001910YS02001907 CONDUIT    579.82     0  03:02      0.74    0.33    1.00
  YS02001786YS02001788 CONDUIT    984.45     0  03:00      2.31    1.90    1.00
  YS02001915YS02001910 CONDUIT    580.38     0  03:02      0.74    0.29    1.00
  YS02001918YS02001915 CONDUIT    256.19     0  03:45      0.44    0.14    1.00
  YS02001923YS02001920 CONDUIT    230.02     0  02:47      0.75    0.10    1.00
  YS02001926YS02001923 CONDUIT    229.84     0  02:47      0.86    0.33    0.92
  YS02001929YS02001926 CONDUIT    199.75     0  03:01      0.92    0.09    0.80
  YS02001920YS02001918 CONDUIT    234.15     0  02:47      0.73    0.23    1.00
  YS02001629YS02163301 CONDUIT    240.06     0  02:39      0.31    0.30    1.00
  YS02001619YS02001622 CONDUIT    380.08     0  03:01      0.59    0.56    1.00
  YS02001622YS02001625 CONDUIT    381.17     0  03:01      0.49    0.20    1.00
  YS02001625YS02001629 CONDUIT    227.11     0  02:45      0.29    0.11    1.00
  YS02163301YS02001633 CONDUIT    242.56     0  02:39      0.31    0.23    1.00
  YS02163601YS02164001 CONDUIT    478.30     0  02:45      0.61    0.42    1.00
  YS02164001YS02001641 CONDUIT    478.16     0  02:45      0.61    0.65    1.00
  YS02001641YS02001644 CONDUIT    479.28     0  02:41      0.61    1.55    1.00
  YS02001647YS02001649 CONDUIT    725.24     0  02:45      0.92    0.38    1.00
  YS02006553YS02006556 CONDUIT    708.06     0  03:45      0.90    0.61    1.00
  YS02006556YS02006558 CONDUIT    707.88     0  03:46      0.90    0.56    1.00
  YSB6556YSB1171       CONDUIT     42.83     0  03:02      0.13    0.04    0.82
  YS02001907YS02006553 CONDUIT    707.80     0  03:46      0.79    0.83    1.00
  YS02006558YS02006561 CONDUIT    983.57     0  03:00      3.48    2.17    1.00
  YS02001633YS02163601 CONDUIT    478.13     0  02:44      0.61    0.50    1.00
  YS02001644YS02001647 CONDUIT    724.96     0  02:45      0.92    0.43    1.00
  YS02001745YS02001748 CONDUIT    622.24     0  02:40      1.46    0.24    0.95
  YS02001748YS02001751 CONDUIT    445.89     0  03:01      1.03    0.23    1.00
  YS02001751YS02001754 CONDUIT    446.46     0  03:01      0.88    0.22    1.00
  YS02001754YS02001757 CONDUIT    446.33     0  03:01      0.57    0.18    1.00
  YS02001882YS02001884 CONDUIT     22.94     0  02:31      0.12    0.03    1.00
  YS02001884YS02001887 CONDUIT     53.27     0  02:30      0.08    0.07    1.00
  YS02001890YS02001895 CONDUIT    518.57     0  03:07      0.66    0.24    1.00
  YS02001895YS02001898 CONDUIT    518.65     0  03:07      0.66    0.90    1.00
  YS02001898YS02001901 CONDUIT    519.01     0  03:10      0.66    0.33    1.00
  YS02001901YS02001904 CONDUIT    518.43     0  03:08      0.66    0.80    1.00
  YS02001904YS02001907 CONDUIT    518.87     0  03:07      0.66    0.18    1.00
  YS02001887YS02001890 CONDUIT    680.19     0  03:01      0.87    1.16    1.00
  YS02001652YS02001649 CONDUIT    521.90     0  03:02      0.66    0.26    1.00
  YS02001655YS02001652 CONDUIT    519.85     0  03:02      0.94    0.25    1.00
  YS02001658YS02001655 CONDUIT    518.75     0  03:02      1.18    0.22    1.00
  YS02001661YS02001658 CONDUIT    639.50     0  02:38      1.53    0.25    1.00
  YS02001664YS02001661 CONDUIT    728.61     0  02:52      1.63    0.23    0.74
  YSB1154YSB6556       CONDUIT     43.27     0  03:01      0.18    0.08    0.73
  YSB1174YSB1171       CONDUIT     36.65     0  03:01      0.11    0.06    0.85
  YSB1171HS02004479    CONDUIT     75.44     0  03:02      0.54    0.05    0.68
  HS02004881HS02006253 CONDUIT    140.49     0  03:01      1.53    0.03    0.54
  YS02001793JiankangQianchi CONDUIT    985.28     0  03:01     16.44    0.08    1.00
  YS02001757CaochengTiaoxuchi CONDUIT   1957.02     0  02:46      2.77    0.86    1.00
  WSF200WS02003060     CONDUIT    938.62     0  03:04      1.92    0.21    0.45
  1                    CONDUIT   1336.33     0  03:06      3.59    0.47    0.48
  CC-Pump-1            PUMP       200.00     0  01:50              1.00
  CC-Pump-2            PUMP       200.00     0  01:50              1.00
  JK-Pump-1            PUMP       300.00     0  00:00              1.00
  JK-Pump-2            PUMP       683.00     0  02:50              1.00
  XR-Pump-1            PUMP        95.00     0  00:00              1.00
  XR-Pump-2            PUMP        95.00     0  00:00              1.00
  XR-Pump-3            PUMP        95.00     0  00:00              1.00
  XR-Pump-4            PUMP        95.00     0  00:00              1.00
  
  
  ***************************
  Flow Classification Summary
  ***************************
  
  -------------------------------------------------------------------------------------
                      Adjusted    ---------- Fraction of Time in Flow Class ---------- 
                       /Actual         Up    Down  Sub   Sup   Up    Down  Norm  Inlet 
  Conduit               Length    Dry  Dry   Dry   Crit  Crit  Crit  Crit  Ltd   Ctrl  
  -------------------------------------------------------------------------------------
  WS02003066WSF200        1.00   0.01  0.02  0.00  0.00  0.97  0.00  0.00  0.53  0.00
  WS02006287WS02006284    1.00   0.03  0.01  0.00  0.65  0.30  0.00  0.00  0.65  0.00
  WS02006284WS02006280    1.00   0.03  0.00  0.00  0.00  0.00  0.00  0.97  0.00  0.00
  WS02006280WS02006229    1.00   0.04  0.00  0.00  0.01  0.04  0.00  0.92  0.04  0.00
  WS02006229WS02006228    1.00   0.00  0.00  0.00  1.00  0.00  0.00  0.00  0.00  0.00
  WS02006256WS02006235    1.00   0.00  0.00  0.00  1.00  0.00  0.00  0.00  0.00  0.00
  WS02006253WS02006251    1.00   0.02  0.01  0.00  0.97  0.00  0.00  0.00  0.00  0.00
  WS02006252WS02006251    1.00   0.06  0.00  0.00  0.18  0.00  0.75  0.00  0.00  0.00
  WS02006251WS02006249    1.00   0.00  0.00  0.00  1.00  0.00  0.00  0.00  0.21  0.00
  WS02006249WS02006248    1.00   0.00  0.01  0.00  0.93  0.00  0.06  0.00  0.00  0.00
  WS02006248WS02006247    1.00   0.01  0.00  0.00  0.99  0.00  0.00  0.00  0.11  0.00
  WS02006247WS02006245    1.00   0.00  0.00  0.00  0.99  0.00  0.00  0.00  0.00  0.00
  WS02006245WS02006243    1.00   0.00  0.00  0.00  0.96  0.00  0.00  0.04  0.00  0.00
  WS02006243WS02006242    1.00   0.00  0.00  0.00  1.00  0.00  0.00  0.00  0.19  0.00
  WS02006242WS02006240    1.00   0.00  0.00  0.00  1.00  0.00  0.00  0.00  0.00  0.00
  WS02006240WS02006239    1.00   0.00  0.00  0.00  0.96  0.00  0.00  0.04  0.01  0.00
  WS02006239WS02006238    1.00   0.00  0.00  0.00  1.00  0.00  0.00  0.00  0.13  0.00
  WS02006238WS02006235    1.00   0.00  0.00  0.00  1.00  0.00  0.00  0.00  0.00  0.00
  WS02006235WS02006234    1.00   0.00  0.00  0.00  0.96  0.00  0.04  0.00  0.00  0.00
  WS02006234WS02006232    1.00   0.00  0.00  0.00  1.00  0.00  0.00  0.00  0.09  0.00
  WS02006232WS02006231    1.00   0.00  0.00  0.00  1.00  0.00  0.00  0.00  0.00  0.00
  WS02006231WS02006230    1.00   0.00  0.00  0.00  0.82  0.00  0.18  0.00  0.00  0.00
  WS02006230WS02006229    1.00   0.00  0.00  0.00  1.00  0.00  0.00  0.00  0.00  0.00
  WS02006228WS02006109    1.00   0.00  0.00  0.00  1.00  0.00  0.00  0.00  0.00  0.00
  WS02006116WS02004401    1.00   0.01  0.00  0.00  0.99  0.00  0.00  0.00  0.00  0.00
  WS02006115WS02006116    1.00   0.01  0.00  0.00  0.99  0.00  0.00  0.00  0.00  0.00
  WS02006113WS02006111    1.00   0.01  0.00  0.00  0.05  0.94  0.00  0.00  0.12  0.00
  WS02006112WS02006115    1.00   0.01  0.00  0.00  0.99  0.00  0.00  0.00  0.00  0.00
  WS02006111WS02006112    1.00   0.01  0.00  0.00  0.99  0.00  0.00  0.00  0.79  0.00
  WS02006110WS02006113    1.00   0.00  0.00  0.00  0.99  0.00  0.00  0.00  0.00  0.00
  WS02006109WS02006110    1.00   0.00  0.00  0.00  0.99  0.00  0.00  0.00  0.00  0.00
  WS02004411WS02004412    1.00   0.01  0.00  0.00  0.99  0.00  0.00  0.00  0.00  0.00
  WS02004401WS02004402    1.00   0.01  0.00  0.00  0.99  0.00  0.00  0.00  0.00  0.00
  WS02004413WS02003067    1.00   0.02  0.01  0.00  0.00  0.00  0.98  0.00  0.00  0.00
  WS02004412WS02004413    1.00   0.02  0.00  0.00  0.98  0.00  0.00  0.00  0.01  0.00
  WS02004410WS02004411    1.00   0.01  0.00  0.00  0.99  0.00  0.00  0.00  0.00  0.00
  WS02004409WS02004410    1.00   0.01  0.00  0.00  0.99  0.00  0.00  0.00  0.02  0.00
  WS02004407WS02004409    1.00   0.01  0.00  0.00  0.98  0.00  0.00  0.00  0.95  0.00
  WS02004406WS02004407    1.00   0.00  0.01  0.00  0.99  0.00  0.00  0.00  0.00  0.00
  WS02004405WS02004406    1.00   0.00  0.00  0.00  1.00  0.00  0.00  0.00  0.00  0.00
  WS02004404WS02004405    1.00   0.00  0.00  0.00  1.00  0.00  0.00  0.00  0.00  0.00
  WS02004403WS02004404    1.00   0.00  0.01  0.00  0.99  0.00  0.00  0.00  0.00  0.00
  WS02004402WS02004403    1.00   0.01  0.00  0.00  0.99  0.00  0.00  0.00  0.00  0.00
  WS02004139WS02001211    1.00   0.00  0.00  0.00  1.00  0.00  0.00  0.00  0.00  0.00
  WS02004138WS02004139    1.00   0.00  0.00  0.00  1.00  0.00  0.00  0.00  1.00  0.00
  WS02003067WS02003066    1.00   0.02  0.00  0.00  0.97  0.00  0.00  0.00  0.00  0.00
  WS02001213WS02003059    1.00   0.00  0.00  0.00  1.00  0.00  0.00  0.00  0.00  0.00
  WS02001212WS02001213    1.00   0.00  0.00  0.00  0.94  0.00  0.06  0.00  0.00  0.00
  WS02001211WS02001212    1.00   0.00  0.00  0.00  1.00  0.00  0.00  0.00  0.00  0.00
  WS02003072WS02003073    1.00   0.00  0.00  0.00  0.00  0.00  0.00  1.00  0.00  0.00
  WS02003069WS02003072    1.00   0.00  0.00  0.00  1.00  0.00  0.00  0.00  0.11  0.00
  WS02003060WS02003069    1.00   0.00  0.00  0.00  0.99  0.01  0.00  0.00  0.09  0.00
  WS02003059WS02003060    1.00   0.00  0.00  0.00  1.00  0.00  0.00  0.00  0.01  0.00
  HS02004901HS02004770    1.00   0.03  0.00  0.00  0.97  0.00  0.00  0.00  0.00  0.00
  HS02004876HS02004881    1.00   0.01  0.00  0.00  0.94  0.05  0.00  0.00  0.00  0.00
  HS02004870HS02004876    1.00   0.00  0.00  0.00  0.99  0.00  0.00  0.00  0.95  0.00
  HS02004842HS02004848    1.00   0.00  0.03  0.00  0.97  0.00  0.00  0.00  0.54  0.00
  HS02004837HS02004842    1.00   0.00  0.00  0.00  1.00  0.00  0.00  0.00  0.11  0.00
  HS02004830HS02004837    1.00   0.00  0.00  0.00  1.00  0.00  0.00  0.00  0.99  0.00
  HS02004824HS02004830    1.00   0.00  0.00  0.00  1.00  0.00  0.00  0.00  0.01  0.00
  HS02004817HS02004824    1.00   0.00  0.00  0.00  1.00  0.00  0.00  0.00  0.97  0.00
  HS02004770HS02004777    1.00   0.00  0.03  0.00  0.97  0.00  0.00  0.00  0.03  0.00
  HS02004799HS02004480    1.00   0.00  0.01  0.00  0.96  0.00  0.03  0.00  0.00  0.00
  HS02004792HS02004799    1.00   0.00  0.00  0.00  1.00  0.00  0.00  0.00  0.98  0.00
  HS02004788HS02004792    1.00   0.00  0.00  0.00  1.00  0.00  0.00  0.00  0.98  0.00
  HS02004785HS02004788    1.00   0.00  0.00  0.00  1.00  0.00  0.00  0.00  0.00  0.00
  HS02004777HS02004785    1.00   0.00  0.00  0.00  1.00  0.00  0.00  0.00  0.12  0.00
  HS02004480HS02004478    1.00   0.03  0.00  0.00  0.73  0.00  0.00  0.23  0.00  0.00
  HS02004479HS02004480    1.00   0.01  0.00  0.00  0.99  0.00  0.00  0.00  0.12  0.00
  HS02004862HS02004870    1.00   0.00  0.00  0.00  1.00  0.00  0.00  0.00  0.04  0.00
  HS02004848HS02004852    1.00   0.03  0.00  0.00  0.97  0.00  0.00  0.00  0.64  0.00
  HS02004856HS02004862    1.00   0.00  0.04  0.00  0.96  0.00  0.00  0.00  0.83  0.00
  HS02004852HS02004856    1.00   0.03  0.00  0.00  0.96  0.00  0.00  0.00  0.80  0.00
  HS02004802HS02004478    1.00   0.03  0.00  0.00  0.96  0.00  0.00  0.00  0.02  0.00
  HS02004478WS02006287    1.00   0.04  0.00  0.00  0.80  0.16  0.00  0.00  0.65  0.00
  HS02004817HS02004807    1.00   0.00  0.03  0.00  0.97  0.00  0.00  0.00  0.01  0.00
  HS02004807HS02004802    1.00   0.03  0.00  0.00  0.96  0.00  0.00  0.00  0.00  0.00
  YS02001759YS02001757    1.00   0.00  0.00  0.00  1.00  0.00  0.00  0.00  0.16  0.00
  YS02001762YS02001759    1.00   0.00  0.00  0.00  1.00  0.00  0.00  0.00  0.03  0.00
  YS02001765YS02001762    1.00   0.00  0.00  0.00  1.00  0.00  0.00  0.00  0.14  0.00
  YS02001770YS02001767    1.00   0.00  0.00  0.00  1.00  0.00  0.00  0.00  0.00  0.00
  YS02001774YS02001770    1.00   0.00  0.03  0.00  0.97  0.00  0.00  0.00  0.03  0.00
  YS02001779YS02001774    1.00   0.00  0.00  0.00  1.00  0.00  0.00  0.00  0.19  0.00
  YS02001649YS02001757    1.00   0.00  0.00  0.00  1.00  0.00  0.00  0.00  0.16  0.00
  YS02001767YS02001765    1.00   0.00  0.00  0.00  1.00  0.00  0.00  0.00  0.00  0.00
  YS02006561YS02001783    1.00   0.05  0.00  0.00  0.33  0.62  0.00  0.00  0.46  0.00
  YS02001783YS02001784    1.00   0.00  0.05  0.00  0.95  0.00  0.00  0.00  0.00  0.00
  YS02001784YS02001785    1.00   0.00  0.00  0.00  1.00  0.00  0.00  0.00  0.18  0.00
  YS02001788YS02001790    1.00   0.00  0.00  0.00  0.40  0.60  0.00  0.00  0.37  0.00
  YS02001790YS02001791    1.00   0.00  0.00  0.00  0.37  0.63  0.00  0.00  0.45  0.00
  YS02001791YS02001793    1.00   0.00  0.00  0.00  0.41  0.59  0.00  0.00  0.02  0.00
  YS02001910YS02001907    1.00   0.00  0.00  0.00  0.99  0.00  0.00  0.01  0.12  0.00
  YS02001786YS02001788    1.00   0.00  0.00  0.00  0.38  0.62  0.00  0.00  0.00  0.00
  YS02001915YS02001910    1.00   0.00  0.00  0.00  0.99  0.01  0.00  0.00  0.16  0.00
  YS02001918YS02001915    1.00   0.00  0.00  0.00  0.99  0.01  0.00  0.00  0.54  0.00
  YS02001923YS02001920    1.00   0.00  0.00  0.00  1.00  0.00  0.00  0.00  0.82  0.00
  YS02001926YS02001923    1.00   0.00  0.02  0.00  0.12  0.00  0.85  0.00  0.00  0.00
  YS02001929YS02001926    1.00   0.00  0.03  0.00  0.97  0.00  0.00  0.00  0.74  0.00
  YS02001920YS02001918    1.00   0.00  0.00  0.00  1.00  0.00  0.00  0.00  0.00  0.00
  YS02001629YS02163301    1.00   0.04  0.00  0.00  0.96  0.00  0.00  0.00  0.00  0.00
  YS02001619YS02001622    1.00   0.03  0.00  0.00  0.97  0.00  0.00  0.00  0.00  0.00
  YS02001622YS02001625    1.00   0.03  0.00  0.00  0.97  0.00  0.00  0.00  0.05  0.00
  YS02001625YS02001629    1.00   0.03  0.01  0.00  0.94  0.00  0.02  0.00  0.00  0.00
  YS02163301YS02001633    1.00   0.00  0.04  0.00  0.96  0.00  0.00  0.00  0.00  0.00
  YS02163601YS02164001    1.00   0.00  0.02  0.00  0.98  0.00  0.00  0.00  0.00  0.00
  YS02164001YS02001641    1.00   0.00  0.02  0.00  0.98  0.00  0.00  0.00  0.06  0.00
  YS02001641YS02001644    1.00   0.00  0.00  0.00  1.00  0.00  0.00  0.00  0.00  0.00
  YS02001647YS02001649    1.00   0.00  0.04  0.00  0.96  0.00  0.00  0.00  0.01  0.00
  YS02006553YS02006556    1.00   0.00  0.00  0.00  1.00  0.00  0.00  0.00  0.03  0.00
  YS02006556YS02006558    1.00   0.00  0.00  0.00  1.00  0.00  0.00  0.00  0.00  0.00
  YSB6556YSB1171          1.00   0.01  0.02  0.00  0.97  0.00  0.00  0.00  0.00  0.00
  YS02001907YS02006553    1.00   0.00  0.01  0.00  0.99  0.00  0.00  0.00  0.00  0.00
  YS02006558YS02006561    1.00   0.05  0.00  0.00  0.13  0.82  0.00  0.00  0.46  0.00
  YS02001633YS02163601    1.00   0.00  0.00  0.00  1.00  0.00  0.00  0.00  0.15  0.00
  YS02001644YS02001647    1.00   0.00  0.04  0.00  0.96  0.00  0.00  0.00  0.00  0.00
  YS02001745YS02001748    1.00   0.00  0.00  0.00  0.90  0.01  0.00  0.09  0.07  0.00
  YS02001748YS02001751    1.00   0.00  0.00  0.00  0.97  0.03  0.00  0.00  0.15  0.00
  YS02001751YS02001754    1.00   0.00  0.00  0.00  0.95  0.00  0.00  0.05  0.02  0.00
  YS02001754YS02001757    1.00   0.00  0.00  0.00  1.00  0.00  0.00  0.00  0.18  0.00
  YS02001882YS02001884    1.00   0.04  0.00  0.00  0.96  0.00  0.00  0.00  0.00  0.00
  YS02001884YS02001887    1.00   0.02  0.01  0.00  0.97  0.00  0.00  0.00  0.00  0.00
  YS02001890YS02001895    1.00   0.00  0.04  0.00  0.96  0.00  0.00  0.00  0.00  0.00
  YS02001895YS02001898    1.00   0.04  0.00  0.00  0.95  0.00  0.01  0.00  0.00  0.00
  YS02001898YS02001901    1.00   0.04  0.00  0.00  0.96  0.00  0.00  0.00  0.01  0.00
  YS02001901YS02001904    1.00   0.04  0.00  0.00  0.96  0.00  0.00  0.00  0.00  0.00
  YS02001904YS02001907    1.00   0.00  0.04  0.00  0.96  0.00  0.00  0.00  0.00  0.00
  YS02001887YS02001890    1.00   0.00  0.00  0.00  0.99  0.00  0.01  0.00  0.00  0.00
  YS02001652YS02001649    1.00   0.00  0.00  0.00  1.00  0.00  0.00  0.00  0.17  0.00
  YS02001655YS02001652    1.00   0.00  0.00  0.00  0.95  0.00  0.00  0.05  0.02  0.00
  YS02001658YS02001655    1.00   0.00  0.04  0.00  0.94  0.03  0.00  0.00  0.10  0.00
  YS02001661YS02001658    1.00   0.04  0.00  0.00  0.90  0.06  0.00  0.00  0.14  0.00
  YS02001664YS02001661    1.00   0.03  0.00  0.00  0.88  0.08  0.00  0.00  0.21  0.00
  YSB1154YSB6556          1.00   0.03  0.00  0.00  0.97  0.00  0.00  0.00  0.02  0.00
  YSB1174YSB1171          1.00   0.02  0.01  0.00  0.97  0.00  0.00  0.00  0.00  0.00
  YSB1171HS02004479       1.00   0.01  0.00  0.00  0.98  0.00  0.00  0.00  0.10  0.00
  HS02004881HS02006253    1.00   0.02  0.00  0.00  0.86  0.01  0.00  0.10  0.71  0.00
  YS02001793JiankangQianchi    1.00   0.00  0.00  0.00  0.64  0.36  0.00  0.00  0.36  0.00
  YS02001757CaochengTiaoxuchi    1.00   0.00  0.06  0.00  0.90  0.04  0.00  0.00  0.00  0.00
  WSF200WS02003060        1.00   0.00  0.01  0.00  0.97  0.02  0.00  0.00  0.29  0.00
  1                       1.00   0.00  0.00  0.00  0.00  1.00  0.00  0.00  0.52  0.00
  
  
  *************************
  Conduit Surcharge Summary
  *************************
  
  ----------------------------------------------------------------------------
                                                           Hours        Hours 
                         --------- Hours Full --------   Above Full   Capacity
  Conduit                Both Ends  Upstream  Dnstream   Normal Flow   Limited
  ----------------------------------------------------------------------------
  WS02006229WS02006228        4.77      4.82      4.77      5.20         4.77
  WS02006256WS02006235        6.15      6.16      6.84      4.74         0.01
  WS02006253WS02006251        2.72      2.72      2.81      0.01         0.01
  WS02006252WS02006251        2.35      2.35      3.47      3.00         0.01
  WS02006251WS02006249        2.75      2.75      2.84      2.03         1.75
  WS02006249WS02006248        2.75      2.75      2.84      4.94         0.01
  WS02006248WS02006247        2.82      2.82      3.18      0.01         0.01
  WS02006247WS02006245        3.15      3.25      3.15      5.35         2.96
  WS02006245WS02006243        3.22      3.22      3.50      0.56         0.51
  WS02006243WS02006242        3.64      3.64      4.55      0.01         0.01
  WS02006242WS02006240        4.41      4.41      4.65      2.68         0.01
  WS02006240WS02006239        4.44      4.46      4.52      1.04         0.78
  WS02006239WS02006238        4.69      4.71      4.80      1.11         0.90
  WS02006238WS02006235        4.77      4.77      4.86      0.01         0.02
  WS02006235WS02006234        4.43      4.43      4.74      6.07         0.01
[...]
  YS02001770YS02001767        5.53      5.53      5.54      0.37         0.82
  YS02001774YS02001770        5.51      5.51      5.73      0.01         0.01
  YS02001779YS02001774        5.36      5.36      5.73      0.01         0.01
  YS02001649YS02001757        5.75      5.75      5.86      0.01         0.01
  YS02001767YS02001765        5.54      5.54      5.71      0.01         0.01
  YS02006561YS02001783        0.99      0.99      1.38      0.01         0.01
  YS02001783YS02001784        1.36      1.38      1.36      1.46         1.26
  YS02001784YS02001785        1.30      1.36      1.30      2.49         1.30
  YS02001788YS02001790        1.25      1.25      2.11      0.01         0.01
  YS02001790YS02001791        2.11      2.11      2.21      1.10         1.07
  YS02001791YS02001793        2.21      2.21      2.57      0.01         0.01
  YS02001910YS02001907        1.28      1.28      1.90      0.01         0.01
  YS02001786YS02001788        1.25      1.30      1.25      2.09         1.25
  YS02001915YS02001910        1.11      1.11      1.28      0.01         0.01
  YS02001918YS02001915        0.94      0.94      1.11      0.01         0.01
  YS02001923YS02001920        0.78      0.78      0.96      0.01         0.01
  YS02001920YS02001918        0.94      0.94      0.96      0.01         0.01
  YS02001629YS02163301        5.49      5.49      5.54      0.01         0.01
  YS02001619YS02001622        5.23      5.23      5.25      0.01         0.02
  YS02001622YS02001625        5.25      5.25      5.48      0.01         0.01
  YS02001625YS02001629        5.23      5.23      5.48      0.01         0.01
  YS02163301YS02001633        5.54      5.54      5.71      0.01         0.01
  YS02163601YS02164001        5.70      5.70      5.75      0.01         0.01
  YS02164001YS02001641        5.70      5.70      5.72      0.01         0.04
  YS02001641YS02001644        5.72      5.72      5.72      1.71         1.65
  YS02001647YS02001649        5.47      5.47      5.75      0.01         0.01
  YS02006553YS02006556        1.51      1.51      1.96      0.01         0.01
  YS02006556YS02006558        1.67      1.67      2.04      0.01         0.01
  YSB6556YSB1171              0.01      0.01      0.07      0.01         0.01
  YS02001907YS02006553        2.53      2.53      2.75      0.01         0.01
  YS02006558YS02006561        1.11      1.46      1.11      2.35         1.11
  YS02001633YS02163601        5.69      5.69      5.75      0.01         0.01
  YS02001644YS02001647        5.47      5.47      5.72      0.01         0.01
  YS02001745YS02001748        0.01      0.01      5.11      0.01         0.01
  YS02001748YS02001751        5.14      5.14      5.20      0.01         0.01
  YS02001751YS02001754        5.20      5.20      5.37      0.01         0.01
  YS02001754YS02001757        5.47      5.47      5.86      0.01         0.01
  YS02001882YS02001884        1.12      1.12      1.14      0.01         0.01
  YS02001884YS02001887        1.19      1.19      1.21      0.01         0.01
  YS02001890YS02001895        1.10      1.10      1.30      0.01         0.01
  YS02001895YS02001898        1.09      1.09      1.10      0.01         0.01
  YS02001898YS02001901        1.10      1.10      1.18      0.01         0.01
  YS02001901YS02001904        1.16      1.16      1.18      0.01         0.01
  YS02001904YS02001907        1.16      1.16      2.00      0.01         0.01
  YS02001887YS02001890        1.24      1.24      1.26      0.16         0.01
  YS02001652YS02001649        5.48      5.48      5.75      0.01         0.01
  YS02001655YS02001652        5.24      5.24      5.47      0.01         0.01
  YS02001658YS02001655        5.13      5.13      5.24      0.01         0.01
  YS02001661YS02001658        0.21      0.21      5.13      0.01         0.01
  YS02001664YS02001661        0.01      0.01      1.16      0.01         0.01
  HS02004881HS02006253        0.01      0.01      2.02      0.01         0.01
  YS02001793JiankangQianchi        2.48      2.48      3.92      0.01         0.01
  YS02001757CaochengTiaoxuchi        4.88      4.88      5.86      0.01         0.01
  
  
  ***************
  Pumping Summary
  ***************
  
  ---------------------------------------------------------------------------------------------------------
                                                  Min       Avg       Max     Total     Power    % Time Off
                        Percent   Number of      Flow      Flow      Flow    Volume     Usage    Pump Curve
  Pump                 Utilized   Start-Ups       LPS       LPS       LPS  10^6 ltr     Kw-hr    Low   High
  ---------------------------------------------------------------------------------------------------------
  CC-Pump-1               75.65           1      0.00    180.20    200.00     3.809      6.73    0.0   13.2
  CC-Pump-2               56.50           7      0.00    106.35    200.00     2.009      5.24    0.0   17.7
  JK-Pump-1               65.95           5      0.00    231.94    300.00     4.200     62.60    0.0    0.0
  JK-Pump-2               53.19           4      0.00    388.37    683.00     6.157     85.77    0.0   95.7
  XR-Pump-1               97.88           2      0.00     94.33     95.00     2.565     25.51    0.0    0.0
  XR-Pump-2               97.88           2      0.00     94.33     95.00     2.565     25.51    0.0    0.0
  XR-Pump-3               95.75           3      0.00     92.17     95.00     2.394     21.75    0.0    0.0
  XR-Pump-4               95.75           3      0.00     92.17     95.00     2.394     21.75    0.0    0.0
  
  
  ***************************
  Link Pollutant Load Summary
  ***************************
  
  ------------------------------------------------------------------------------------------
                                 COD            SS            TN            TP         NH4-N
  Link                            kg            kg            kg            kg            kg
  ------------------------------------------------------------------------------------------
  WS02003066WSF200           986.888      1849.300        24.821         2.121        12.942
  WS02006287WS02006284       319.467       608.076        10.315         1.015         5.679
  WS02006284WS02006280       319.937       608.840        10.360         1.021         5.707
  WS02006280WS02006229       319.890       608.736        10.358         1.020         5.706
  WS02006229WS02006228       980.516      1838.566        24.166         2.035        12.531
  WS02006256WS02006235       199.149       368.148         4.389         0.341         2.218
  WS02006253WS02006251        63.064       123.926         1.408         0.107         0.701
  WS02006252WS02006251       508.878       944.077        10.279         0.730         5.013
  WS02006251WS02006249       563.222      1051.703        11.522         0.826         5.637
  WS02006249WS02006248       465.719       869.207         9.542         0.684         4.673
  WS02006248WS02006247       465.502       868.799         9.536         0.684         4.670
  WS02006247WS02006245       465.345       868.519         9.531         0.683         4.667
  WS02006245WS02006243       464.569       867.122         9.509         0.681         4.655
  WS02006243WS02006242       464.628       867.258         9.509         0.681         4.655
  WS02006242WS02006240       463.772       865.707         9.487         0.680         4.644
  WS02006240WS02006239       463.037       864.386         9.467         0.678         4.633
  WS02006239WS02006238       462.945       864.243         9.466         0.678         4.633
  WS02006238WS02006235       462.577       863.573         9.456         0.677         4.627
  WS02006235WS02006234       661.640      1231.541        13.844         1.018         6.845
  WS02006234WS02006232       661.703      1231.634        13.850         1.018         6.848
  WS02006232WS02006231       661.436      1231.120        13.845         1.018         6.846
  WS02006231WS02006230       661.038      1230.352        13.839         1.018         6.843
  WS02006230WS02006229       660.837      1230.073        13.826         1.016         6.836
  WS02006228WS02006109       980.261      1838.091        24.156         2.034        12.525
  WS02006116WS02004401       996.721      1867.445        25.051         2.139        13.060
  WS02006115WS02006116       997.381      1868.626        25.072         2.141        13.071
  WS02006113WS02006111       986.990      1848.374        24.910         2.129        13.000
  WS02006112WS02006115       998.202      1870.057        25.107         2.145        13.091
  WS02006111WS02006112       986.986      1848.477        24.903         2.129        12.996
  WS02006110WS02006113       987.605      1849.543        24.930         2.131        13.012
  WS02006109WS02006110       988.477      1851.151        24.965         2.135        13.031
  WS02004411WS02004412       989.952      1854.783        24.931         2.132        13.004
  WS02004401WS02004402       995.835      1865.873        25.017         2.135        13.040
  WS02004413WS02003067       987.613      1850.704        24.835         2.122        12.949
  WS02004412WS02004413       988.879      1852.871        24.896         2.128        12.985
  WS02004410WS02004411       990.862      1856.445        24.958         2.134        13.019
  WS02004409WS02004410       991.751      1858.041        24.988         2.137        13.035
  WS02004407WS02004409       992.494      1859.417        25.006         2.139        13.045
  WS02004406WS02004407       992.768      1859.998        25.005         2.138        13.043
  WS02004405WS02004406       994.097      1862.401        25.057         2.143        13.073
  WS02004404WS02004405       994.805      1863.784        25.052         2.142        13.067
  WS02004403WS02004404       994.227      1862.984        24.962         2.130        13.009
  WS02004402WS02004403       995.009      1864.373        24.991         2.133        13.026
  WS02004139WS02001211      1382.665      2295.682       112.257        13.703        69.196
  WS02004138WS02004139      1388.935      2306.161       112.740        13.761        69.493
  WS02003067WS02003066       987.090      1849.673        24.828         2.121        12.946
  WS02001213WS02003059      1415.819      2347.759       115.698        14.137        71.359
  WS02001212WS02001213      1424.840      2362.720       116.426        14.226        71.807
  WS02001211WS02001212      1427.014      2366.269       116.614        14.249        71.924
  WS02003072WS02003073      2502.648      4355.682       150.477        17.508        90.541
  WS02003069WS02003072      2507.714      4363.914       150.908        17.561        90.807
  WS02003060WS02003069      2510.358      4368.503       151.058        17.579        90.897
  WS02003059WS02003060      1412.746      2342.552       115.481        14.111        71.227
  HS02004901HS02004770        13.094        25.474         0.248         0.019         0.116
  HS02004876HS02004881        45.513        90.343         0.999         0.073         0.491
  HS02004870HS02004876        34.382        68.104         0.798         0.060         0.395
  HS02004842HS02004848         6.456        12.343         0.134         0.009         0.062
  HS02004837HS02004842        11.056        19.635         0.603         0.068         0.356
  HS02004830HS02004837        70.297       122.724         4.643         0.552         2.827
  HS02004824HS02004830        71.068       123.979         4.715         0.561         2.871
  HS02004817HS02004824        97.162       176.403         5.254         0.596         3.135
  HS02004770HS02004777        49.661        97.710         1.021         0.069         0.472
  HS02004799HS02004480       162.318       310.820         4.263         0.379         2.209
  HS02004792HS02004799       147.269       280.109         4.028         0.367         2.105
  HS02004788HS02004792        82.813       157.677         2.666         0.255         1.440
  HS02004785HS02004788        51.118       100.042         1.172         0.089         0.567
  HS02004777HS02004785        50.444        98.938         1.112         0.081         0.530
  HS02004480HS02004478       204.807       395.150         4.971         0.429         2.543
  HS02004479HS02004480        46.127        90.111         1.037         0.091         0.538
  HS02004862HS02004870        25.799        50.338         0.628         0.050         0.314
  HS02004848HS02004852        10.252        19.885         0.210         0.014         0.097
  HS02004856HS02004862        17.524        34.748         0.350         0.023         0.164
  HS02004852HS02004856        10.255        19.889         0.210         0.014         0.097
  HS02004802HS02004478       115.338       214.043         5.398         0.592         3.169
  HS02004478WS02006287       319.671       608.430        10.331         1.017         5.689
  HS02004817HS02004807        95.856       174.306         5.130         0.581         3.057
  HS02004807HS02004802       115.595       214.445         5.430         0.596         3.189
  YS02001759YS02001757       427.744       794.682         8.441         0.585         4.116
  YS02001762YS02001759       172.509       317.558         3.682         0.257         1.821
  YS02001765YS02001762       173.839       321.038         3.725         0.260         1.845
  YS02001770YS02001767       176.081       328.086         3.557         0.232         1.725
  YS02001774YS02001770       188.001       365.666         3.649         0.241         1.764
  YS02001779YS02001774       187.018       363.658         3.738         0.255         1.827
  YS02001649YS02001757       358.894       645.803         7.152         0.501         3.421
  YS02001767YS02001765       175.749       325.606         3.775         0.264         1.871
  YS02006561YS02001783      1017.051      1884.896        21.332         1.592        10.616
  YS02001783YS02001784      1016.883      1884.612        21.327         1.592        10.614
  YS02001784YS02001785      1024.153      1896.235        22.039         1.681        11.059
  YS02001788YS02001790      1024.652      1897.011        22.109         1.690        11.104
  YS02001790YS02001791      1025.610      1898.539        22.207         1.703        11.165
  YS02001791YS02001793      1025.431      1898.221        22.200         1.702        11.162
  YS02001910YS02001907       390.997       721.190         9.384         0.718         4.808
  YS02001786YS02001788      1024.306      1896.470        22.065         1.685        11.076
  YS02001915YS02001910       391.092       721.353         9.337         0.711         4.776
  YS02001918YS02001915       189.020       333.769         5.190         0.471         2.793
  YS02001923YS02001920       166.502       296.663         3.202         0.226         1.557
  YS02001926YS02001923       164.720       293.630         3.109         0.215         1.502
  YS02001929YS02001926       164.173       292.707         3.065         0.210         1.474
  YS02001920YS02001918       186.874       329.430         5.121         0.465         2.755
  YS02001629YS02163301        99.035       175.345         2.087         0.135         0.974
  YS02001619YS02001622       175.903       321.195         3.602         0.236         1.684
  YS02001622YS02001625       174.677       319.229         3.573         0.234         1.671
  YS02001625YS02001629       100.174       177.237         2.112         0.136         0.985
  YS02163301YS02001633        99.356       176.128         2.089         0.135         0.975
  YS02163601YS02164001       408.627       738.486         7.957         0.566         3.811
  YS02164001YS02001641       408.088       737.565         7.936         0.564         3.799
  YS02001641YS02001644       408.125       737.535         7.932         0.563         3.796
  YS02001647YS02001649       380.455       689.905         7.513         0.526         3.586
  YS02006553YS02006556       683.301      1255.660        14.710         1.127         7.406
  YS02006556YS02006558       683.134      1255.333        14.679         1.123         7.385
  YSB6556YSB1171              26.521        51.966         0.537         0.045         0.271
  YS02001907YS02006553       683.467      1255.996        14.720         1.128         7.411
  YS02006558YS02006561      1017.075      1884.939        21.332         1.592        10.616
  YS02001633YS02163601       409.359       739.635         7.938         0.562         3.795
  YS02001644YS02001647       387.889       703.728         7.636         0.535         3.644
  YS02001745YS02001748       248.737       465.378         5.384         0.366         2.662
  YS02001748YS02001751       247.437       462.613         5.492         0.384         2.739
  YS02001751YS02001754       246.491       461.048         5.476         0.384         2.732
  YS02001754YS02001757       247.179       462.043         5.639         0.406         2.838
  YS02001882YS02001884         2.947         5.086         0.060         0.005         0.030
  YS02001884YS02001887         7.304        12.925         0.144         0.011         0.071
  YS02001890YS02001895       450.821       846.173         8.299         0.624         4.048
  YS02001895YS02001898       450.629       845.902         8.292         0.623         4.044
  YS02001898YS02001901       450.362       845.434         8.286         0.623         4.041
  YS02001901YS02001904       450.170       845.145         8.292         0.624         4.046
  YS02001904YS02001907       450.313       845.337         8.344         0.631         4.079
  YS02001887YS02001890       468.158       880.553         8.643         0.652         4.222
  YS02001652YS02001649       195.722       364.753         3.930         0.283         1.844
  YS02001655YS02001652       196.193       365.536         3.943         0.284         1.850
  YS02001658YS02001655       195.610       364.646         3.853         0.273         1.793
  YS02001661YS02001658       197.826       368.705         3.898         0.276         1.813
  YS02001664YS02001661       217.177       400.333         4.337         0.305         2.014
  YSB1154YSB6556              26.085        51.271         0.486         0.038         0.239
  YSB1174YSB1171              18.021        35.561         0.361         0.029         0.181
  YSB1171HS02004479           46.091        90.056         1.040         0.092         0.540
  HS02004881HS02006253        51.366       102.245         1.101         0.079         0.539
  YS02001793JiankangQianchi      1025.828      1898.872        22.223         1.705        11.175
  YS02001757CaochengTiaoxuchi       818.933      1505.961        16.762         1.184         8.182
  WSF200WS02003060           986.561      1848.622        24.821         2.121        12.943
  1                         2508.810      4364.317       151.350        17.622        91.097
  CC-Pump-1                  340.867       634.301         6.878         0.488         3.355
  CC-Pump-2                  168.070       309.891         3.401         0.242         1.658
  JK-Pump-1                  283.622       528.636         6.028         0.458         3.017
  JK-Pump-2                  517.293       977.504        10.730         0.808         5.343
  XR-Pump-1                  365.110       605.216        29.875         3.651        18.428
  XR-Pump-2                  365.110       605.216        29.875         3.651        18.428
  XR-Pump-3                  331.166       550.858        26.643         3.248        16.410
  XR-Pump-4                  331.166       550.858        26.643         3.248        16.410
  

  Analysis begun on:  Wed Jun  2 21:29:21 2021
  Analysis ended on:  Wed Jun  2 21:29:25 2021
  Total elapsed time: 00:00:04