
  EPA STORM WATER MANAGEMENT MODEL - VERSION 5.1 (Build 5.3.0.dev0)
  --------------------------------------------------------------

  
  *********************************************************
  NOTE: The summary statistics displayed in this report are
  based on results found at every computational time step,  
  not just on results from each reporting time step.
  *********************************************************
  
  ****************
  Analysis Options
  ****************
  Flow Units ............... CMS
  Process Models:
    Rainfall/Runoff ........ YES
    RDII ................... NO
    Snowmelt ............... NO
    Groundwater ............ NO
    Flow Routing ........... YES
    Ponding Allowed ........ YES
    Water Quality .......... NO
  Infiltration Method ...... HORTON
  Flow Routing Method ...... DYNWAVE
  Surcharge Method ......... EXTRAN
  Starting Date ............ 08/28/2015 08:00:00
  Ending Date .............. 08/28/2015 15:50:00
  Antecedent Dry Days ...... 0.0
  Report Time Step ......... 00:01:00
  Wet Time Step ............ 00:01:00
  Dry Time Step ............ 00:01:00
  Routing Time Step ........ 5.00 sec
  Variable Time Step ....... YES
  Maximum Trials ........... 8
  Number of Threads ........ 1
  Head Tolerance ........... 0.001500 m
  
  
  **************************        Volume         Depth
  Runoff Quantity Continuity     hectare-m            mm
  **************************     ---------       -------
  Total Precipitation ......         1.377         7.642
  Evaporation Loss .........         0.000         0.000
  Infiltration Loss ........         0.000         0.000
  Surface Runoff ...........         1.353         7.511
  Final Storage ............         0.024         0.132
  Continuity Error (%) .....        -0.009
  
  
  **************************        Volume        Volume
  Flow Routing Continuity        hectare-m      10^6 ltr
  **************************     ---------     ---------
  Dry Weather Inflow .......         0.396         3.955
  Wet Weather Inflow .......         1.353        13.534
  Groundwater Inflow .......         0.000         0.000
  RDII Inflow ..............         0.000         0.000
  External Inflow ..........         0.000         0.000
  External Outflow .........         0.549         5.490
  Flooding Loss ............         0.245         2.450
  Evaporation Loss .........         0.000         0.000
  Exfiltration Loss ........         0.000         0.000
  Initial Stored Volume ....         0.000         0.000
  Final Stored Volume ......         0.719         7.192
  Continuity Error (%) .....        13.478
  
  
  *************************
  Highest Continuity Errors
  *************************
  Node T2 (38.23%)
  Node T4 (24.61%)
  Node T5 (23.13%)
  Node T3 (22.57%)
  Node T6 (17.79%)
  
  
  ***************************
  Time-Step Critical Elements
  ***************************
  None
  
  
  ********************************
  Highest Flow Instability Indexes
  ********************************
  Link C13 (1)
  
  
  *************************
  Routing Time Step Summary
  *************************
  Minimum Time Step           :     4.50 sec
  Average Time Step           :     5.00 sec
  Maximum Time Step           :     5.00 sec
  Percent in Steady State     :     0.00
  Average Iterations per Step :     2.17
  Percent Not Converging      :     0.59
  
  
  ***************************
  Subcatchment Runoff Summary
  ***************************
  
  ------------------------------------------------------------------------------------------------------------------------------
                            Total      Total      Total      Total     Imperv       Perv      Total       Total     Peak  Runoff
                           Precip      Runon       Evap      Infil     Runoff     Runoff     Runoff      Runoff   Runoff   Coeff
  Subcatchment                 mm         mm         mm         mm         mm         mm         mm    10^6 ltr      CMS
  ------------------------------------------------------------------------------------------------------------------------------
  SC01                       7.64       0.00       0.00       0.00       7.56       0.00       7.56        2.49     0.76   0.989
  SC02                       7.64       0.00       0.00       0.00       7.55       0.00       7.55        1.72     0.52   0.988
  SC03                       7.64       0.00       0.00       0.00       7.57       0.00       7.57        1.36     0.44   0.991
  SC04                       7.64       0.00       0.00       0.00       7.45       0.00       7.45        0.51     0.13   0.974
  SC05                       7.64       0.00       0.00       0.00       7.55       0.00       7.55        1.18     0.35   0.988
  SC06                       7.64       0.00       0.00       0.00       7.39       0.00       7.39        2.41     0.58   0.967
  SC07                       7.64       0.00       0.00       0.00       7.45       0.00       7.45        0.35     0.09   0.974
  SC08                       7.64       0.00       0.00       0.00       7.52       0.00       7.52        2.11     0.60   0.985
  SC09                       7.64       0.00       0.00       0.00       7.50       0.00       7.50        0.52     0.14   0.981
  SC010                      7.64       0.00       0.00       0.00       7.53       0.00       7.53        0.88     0.25   0.985
  
  
  ******************
  Node Depth Summary
  ******************
  
  ---------------------------------------------------------------------------------
                                 Average  Maximum  Maximum  Time of Max    Reported
                                   Depth    Depth      HGL   Occurrence   Max Depth
  Node                 Type       Meters   Meters   Meters  days hr:min      Meters
  ---------------------------------------------------------------------------------
  J1                   JUNCTION     0.08     0.20    34.20     0  03:01        0.20
  J3                   JUNCTION     0.10     0.13    18.13     0  05:33        0.13
  CSO7                 JUNCTION     0.16     1.20    35.20     0  02:47        1.20
  J5                   JUNCTION     0.07     0.15    32.15     0  03:01        0.15
  CSO9                 JUNCTION     0.18     2.00    42.00     0  02:56        2.00
  J8                   JUNCTION     0.11     0.28    36.28     0  03:01        0.28
  CSO8                 JUNCTION     0.21     2.00    34.00     0  02:54        2.00
  J10                  JUNCTION     0.10     0.29    29.29     0  03:01        0.29
  J13                  JUNCTION     0.07     0.19    29.19     0  03:01        0.19
  J15                  JUNCTION     0.17     0.34    15.34     0  03:02        0.34
  J16                  JUNCTION     0.07     0.21    30.21     0  03:01        0.21
  CSO10                JUNCTION     0.14     1.00    31.00     0  02:54        1.00
  J12                  JUNCTION     0.29     0.47    26.47     0  05:17        0.47
  J4                   JUNCTION     0.15     1.21    34.21     0  02:47        0.79
  J6                   JUNCTION     0.06     0.07    25.07     0  05:00        0.07
  J2                   JUNCTION     0.06     0.08    25.08     0  03:57        0.08
  J19                  JUNCTION     0.14     0.17     8.17     0  02:54        0.17
  J9                   JUNCTION     0.09     0.11    29.11     0  04:25        0.11
  J14                  JUNCTION     0.10     0.15    20.15     0  05:21        0.15
  J17                  JUNCTION     0.05     0.07    20.07     0  07:41        0.07
  J7                   JUNCTION     0.09     0.23    39.23     0  03:03        0.23
  J11                  JUNCTION     0.10     0.30    31.30     0  02:58        0.30
  J18                  JUNCTION     0.06     0.16    29.16     0  03:04        0.16
  Out_to_WWTP          OUTFALL      0.14     0.17     6.17     0  02:52        0.17
  T5                   STORAGE      3.29     5.00    32.00     0  03:10        5.00
  T4                   STORAGE      3.05     4.78    31.78     0  04:58        4.78
  T6                   STORAGE      3.44     5.00    36.00     0  02:56        5.00
  T3                   STORAGE      2.92     4.47    26.47     0  05:22        4.47
  T2                   STORAGE      2.95     4.44    25.44     0  07:05        4.44
  T1                   STORAGE      3.20     5.00    15.00     0  02:52        5.00
  
  
  *******************
  Node Inflow Summary
  *******************
  
  -------------------------------------------------------------------------------------------------
                                  Maximum  Maximum                  Lateral       Total        Flow
                                  Lateral    Total  Time of Max      Inflow      Inflow     Balance
                                   Inflow   Inflow   Occurrence      Volume      Volume       Error
  Node                 Type           CMS      CMS  days hr:min    10^6 ltr    10^6 ltr     Percent
  -------------------------------------------------------------------------------------------------
  J1                   JUNCTION     0.376    0.376     0  03:01        1.74        1.74       0.027
  J3                   JUNCTION     0.000    0.183     0  05:22           0        3.24       0.867
  CSO7                 JUNCTION     0.102    0.102     0  03:01       0.644       0.644       0.072
  J5                   JUNCTION     0.136    0.207     0  03:01       0.641        1.26       0.126
  CSO9                 JUNCTION     0.149    0.149     0  03:01       0.714       0.714       0.069
  J8                   JUNCTION     0.620    0.745     0  03:01        3.35        4.05       0.130
  CSO8                 JUNCTION     0.609    0.609     0  03:01         2.4         2.4       0.024
  J10                  JUNCTION     0.459    0.947     0  03:01        1.75        4.11       0.090
  J13                  JUNCTION     0.536    0.536     0  03:01        2.19        2.19      -0.169
  J15                  JUNCTION     0.000    1.098     0  03:01           0        7.74       0.878
  J16                  JUNCTION     0.784    0.784     0  03:01        3.05        3.05      -0.009
  CSO10                JUNCTION     0.259    0.259     0  03:01        1.02        1.02       0.033
  J12                  JUNCTION     0.000    1.001     0  03:01           0        5.76       4.595
  J4                   JUNCTION     0.000    0.071     0  03:01           0       0.627       0.535
  J6                   JUNCTION     0.000    0.027     0  04:58           0       0.529       0.741
  J2                   JUNCTION     0.000    0.039     0  03:10           0       0.822       0.621
  J19                  JUNCTION     0.000    0.271     0  02:52           0         5.5       0.204
  J9                   JUNCTION     0.000    0.075     0  02:56           0        1.62       1.062
  J14                  JUNCTION     0.000    0.117     0  05:22           0        1.91       0.220
  J17                  JUNCTION     0.000    0.031     0  07:30           0       0.477       1.313
  J7                   JUNCTION     0.000    0.127     0  03:03           0       0.709       0.445
  J11                  JUNCTION     0.000    0.486     0  02:58           0        2.37       0.262
  J18                  JUNCTION     0.000    0.202     0  03:04           0        1.01       0.087
  Out_to_WWTP          OUTFALL      0.000    0.271     0  02:54           0        5.49       0.000
  T5                   STORAGE      0.000    0.370     0  03:01           0        1.74      30.084
  T4                   STORAGE      0.000    0.204     0  03:01           0        1.26      32.642
  T6                   STORAGE      0.000    0.729     0  03:01           0        4.05      21.641
  T3                   STORAGE      0.000    0.971     0  03:02           0        5.51      29.145
  T2                   STORAGE      0.000    0.525     0  03:01           0        2.19      61.895
  T1                   STORAGE      0.000    1.038     0  03:02           0        7.67       8.513
  
  
  **********************
  Node Surcharge Summary
  **********************
  
  Surcharging occurs when water rises above the top of the highest conduit.
  ---------------------------------------------------------------------
                                               Max. Height   Min. Depth
                                   Hours       Above Crown    Below Rim
  Node                 Type      Surcharged         Meters       Meters
  ---------------------------------------------------------------------
  CSO7                 JUNCTION        0.54          0.945        0.000
  CSO9                 JUNCTION        0.57          1.682        0.000
  CSO8                 JUNCTION        0.51          1.547        0.000
  CSO10                JUNCTION        0.27          0.560        0.000
  J4                   JUNCTION        0.50          0.909        0.791
  
  
  *********************
  Node Flooding Summary
  *********************
  
  Flooding refers to all water that overflows a node, whether it ponds or not.
  --------------------------------------------------------------------------
                                                             Total   Maximum
                                 Maximum   Time of Max       Flood    Ponded
                        Hours       Rate    Occurrence      Volume     Depth
  Node                 Flooded       CMS   days hr:min    10^6 ltr    Meters
  --------------------------------------------------------------------------
  CSO7                    0.35     0.031      0  03:01       0.017     0.000
  CSO9                    0.12     0.022      0  03:01       0.004     0.000
  CSO8                    0.15     0.123      0  03:01       0.031     0.000
  CSO10                   0.17     0.057      0  03:01       0.015     0.000
  T5                      0.85     0.150      0  03:10       0.113     0.000
  T6                      2.20     0.653      0  03:01       1.198     0.000
  T1                      1.21     0.767      0  03:02       1.072     0.000
  
  
  **********************
  Storage Volume Summary
  **********************
  
  --------------------------------------------------------------------------------------------------
                         Average     Avg  Evap Exfil       Maximum     Max    Time of Max    Maximum
                          Volume    Pcnt  Pcnt  Pcnt        Volume    Pcnt     Occurrence    Outflow
  Storage Unit           1000 m3    Full  Loss  Loss       1000 m3    Full    days hr:min        CMS
  --------------------------------------------------------------------------------------------------
  T5                       0.329      66     0     0         0.500     100       0  03:10      0.039
  T4                       0.305      61     0     0         0.478      96       0  04:58      0.027
  T6                       0.413      69     0     0         0.600     100       0  02:56      0.075
  T3                       1.521      58     0     0         2.325      89       0  05:22      0.133
  T2                       0.590      59     0     0         0.889      89       0  07:05      0.031
  T1                       0.449      64     0     0         0.700     100       0  02:52      0.271
  
  
  ***********************
  Outfall Loading Summary
  ***********************
  
  -----------------------------------------------------------
                         Flow       Avg       Max       Total
                         Freq      Flow      Flow      Volume
  Outfall Node           Pcnt       CMS       CMS    10^6 ltr
  -----------------------------------------------------------
  Out_to_WWTP           99.01     0.197     0.271       5.490
  -----------------------------------------------------------
  System                99.01     0.197     0.271       5.490
  
  
  ********************
  Link Flow Summary
  ********************
  
  -----------------------------------------------------------------------------
                                 Maximum  Time of Max   Maximum    Max/    Max/
                                  |Flow|   Occurrence   |Veloc|    Full    Full
  Link                 Type          CMS  days hr:min     m/sec    Flow   Depth
  -----------------------------------------------------------------------------
  C1                   CONDUIT     0.039     0  03:57      1.08    0.01    0.11
  C6                   CONDUIT     0.071     0  03:01      1.29    1.13    0.75
  C2                   CONDUIT     0.027     0  05:00      1.00    0.03    0.17
  C9                   CONDUIT     0.126     0  03:03      1.28    0.43    0.51
  C16                  CONDUIT     0.489     0  03:01      1.76    0.05    0.15
  C3                   CONDUIT     0.117     0  05:22      1.77    0.05    0.14
  C19                  CONDUIT     0.031     0  07:41      0.68    0.01    0.21
  C11                  CONDUIT     0.182     0  05:33      1.73    0.01    0.11
  C20                  CONDUIT     0.769     0  03:01      2.93    0.02    0.14
  C22                  CONDUIT     0.202     0  03:04      1.59    0.09    0.32
  C12                  CONDUIT     0.075     0  04:21      0.71    0.01    0.14
  C17                  CONDUIT     0.926     0  03:01      3.03    0.05    0.15
  C10                  CONDUIT     0.729     0  03:01      1.66    0.07    0.59
  C13                  CONDUIT     0.971     0  03:02      1.45    0.06    0.62
  C18                  CONDUIT     0.525     0  03:01      1.72    0.02    0.55
  C23                  CONDUIT     1.038     0  03:02      1.24    0.11    0.61
  C4                   CONDUIT     0.370     0  03:01      1.98    0.09    0.60
  C7                   CONDUIT     0.204     0  03:01      1.43    0.05    0.58
  C14                  CONDUIT     0.271     0  02:54      2.08    0.02    0.09
  C5                   CONDUIT     0.071     0  03:01      1.39    1.21    1.00
  C8                   CONDUIT     0.127     0  03:03      1.75    1.60    0.86
  C15                  CONDUIT     0.486     0  02:58      3.42    1.55    0.83
  C21                  CONDUIT     0.202     0  03:04      1.83    1.16    0.69
  V4                   ORIFICE     0.027     0  04:58                      0.35
  V5                   ORIFICE     0.039     0  03:10                      1.00
  V1                   ORIFICE     0.271     0  02:52                      1.00
  V6                   ORIFICE     0.075     0  02:56                      0.43
  V3                   ORIFICE     0.117     0  05:22                      0.65
  V2                   ORIFICE     0.031     0  07:30                      0.24
  
  
  ***************************
  Flow Classification Summary
  ***************************
  
  -------------------------------------------------------------------------------------
                      Adjusted    ---------- Fraction of Time in Flow Class ---------- 
                       /Actual         Up    Down  Sub   Sup   Up    Down  Norm  Inlet 
  Conduit               Length    Dry  Dry   Dry   Crit  Crit  Crit  Crit  Ltd   Ctrl  
  -------------------------------------------------------------------------------------
  C1                      1.00   0.00  0.00  0.00  0.03  0.97  0.00  0.00  0.94  0.00
  C6                      1.00   0.00  0.00  0.00  0.09  0.91  0.00  0.00  0.00  0.00
  C2                      1.00   0.00  0.00  0.00  0.36  0.64  0.00  0.00  0.95  0.00
  C9                      1.00   0.00  0.00  0.00  1.00  0.00  0.00  0.00  1.00  0.00
  C16                     1.00   0.00  0.00  0.00  0.56  0.44  0.00  0.00  0.39  0.00
  C3                      1.00   0.00  0.00  0.00  0.05  0.95  0.00  0.00  0.49  0.00
  C19                     1.00   0.00  0.00  0.00  1.00  0.00  0.00  0.00  1.00  0.00
  C11                     1.00   0.00  0.00  0.00  0.36  0.63  0.00  0.00  1.00  0.00
  C20                     1.00   0.00  0.00  0.00  0.54  0.46  0.00  0.00  0.98  0.00
  C22                     1.00   0.00  0.00  0.00  0.73  0.27  0.00  0.00  1.00  0.00
  C12                     1.00   0.00  0.00  0.00  1.00  0.00  0.00  0.00  1.00  0.00
  C17                     1.00   0.00  0.00  0.00  0.54  0.46  0.00  0.00  0.97  0.00
  C10                     1.00   0.00  0.00  0.00  0.96  0.04  0.00  0.00  0.97  0.00
  C13                     1.00   0.00  0.00  0.00  0.88  0.12  0.00  0.00  0.35  0.00
  C18                     1.00   0.00  0.00  0.00  0.94  0.06  0.00  0.00  0.97  0.00
  C23                     1.00   0.00  0.00  0.00  0.87  0.13  0.00  0.00  0.94  0.00
  C4                      1.00   0.00  0.00  0.00  0.96  0.04  0.00  0.00  0.98  0.00
  C7                      1.00   0.00  0.00  0.00  0.94  0.06  0.00  0.00  0.97  0.00
  C14                     1.00   0.00  0.00  0.00  0.00  0.99  0.00  0.00  0.15  0.00
  C5                      1.00   0.00  0.00  0.00  0.89  0.11  0.00  0.00  0.91  0.00
  C8                      1.00   0.00  0.00  0.00  0.12  0.88  0.00  0.00  0.00  0.00
  C15                     1.00   0.00  0.00  0.00  0.00  1.00  0.00  0.00  0.00  0.00
  C21                     1.00   0.00  0.00  0.00  0.00  1.00  0.00  0.00  0.00  0.00
  
  
  *************************
  Conduit Surcharge Summary
  *************************
  
  ----------------------------------------------------------------------------
                                                           Hours        Hours 
                         --------- Hours Full --------   Above Full   Capacity
  Conduit                Both Ends  Upstream  Dnstream   Normal Flow   Limited
  ----------------------------------------------------------------------------
  C6                          0.01      0.50      0.01      0.40         0.01
  C10                         0.01      0.01      5.69      0.01         0.01
  C13                         0.01      0.01      5.12      0.01         0.01
  C18                         0.01      0.01      5.18      0.01         0.01
  C23                         0.01      0.01      5.75      0.01         0.01
  C4                          0.01      0.01      5.91      0.01         0.01
  C7                          0.01      0.01      5.62      0.01         0.01
  C5                          0.54      0.54      0.66      0.62         0.51
  C8                          0.01      0.57      0.01      0.59         0.01
  C15                         0.01      0.51      0.01      0.59         0.01
  C21                         0.01      0.27      0.01      0.27         0.01
  

  Analysis begun on:  Fri Sep  3 19:32:30 2021
  Analysis ended on:  Fri Sep  3 19:32:31 2021
  Total elapsed time: 00:00:01