
  EPA STORM WATER MANAGEMENT MODEL - VERSION 5.1 (Build 5.3.0.dev0)
  --------------------------------------------------------------

  
  *********************************************************
  NOTE: The summary statistics displayed in this report are
  based on results found at every computational time step,  
  not just on results from each reporting time step.
  *********************************************************
  
  ****************
  Analysis Options
  ****************
  Flow Units ............... CMS
  Process Models:
    Rainfall/Runoff ........ YES
    RDII ................... NO
    Snowmelt ............... NO
    Groundwater ............ NO
    Flow Routing ........... YES
    Ponding Allowed ........ YES
    Water Quality .......... NO
  Infiltration Method ...... HORTON
  Flow Routing Method ...... DYNWAVE
  Surcharge Method ......... EXTRAN
  Starting Date ............ 08/28/2015 08:00:00
  Ending Date .............. 08/28/2015 15:50:00
  Antecedent Dry Days ...... 0.0
  Report Time Step ......... 00:01:00
  Wet Time Step ............ 00:01:00
  Dry Time Step ............ 00:01:00
  Routing Time Step ........ 5.00 sec
  Variable Time Step ....... YES
  Maximum Trials ........... 8
  Number of Threads ........ 1
  Head Tolerance ........... 0.001500 m
  
  
  **************************        Volume         Depth
  Runoff Quantity Continuity     hectare-m            mm
  **************************     ---------       -------
  Total Precipitation ......         1.070         5.937
  Evaporation Loss .........         0.000         0.000
  Infiltration Loss ........         0.000         0.000
  Surface Runoff ...........         1.047         5.809
  Final Storage ............         0.023         0.129
  Continuity Error (%) .....        -0.007
  
  
  **************************        Volume        Volume
  Flow Routing Continuity        hectare-m      10^6 ltr
  **************************     ---------     ---------
  Dry Weather Inflow .......         0.396         3.955
  Wet Weather Inflow .......         1.047        10.467
  Groundwater Inflow .......         0.000         0.000
  RDII Inflow ..............         0.000         0.000
  External Inflow ..........         0.000         0.000
  External Outflow .........         0.543         5.429
  Flooding Loss ............         0.086         0.857
  Evaporation Loss .........         0.000         0.000
  Exfiltration Loss ........         0.000         0.000
  Initial Stored Volume ....         0.000         0.000
  Final Stored Volume ......         0.626         6.261
  Continuity Error (%) .....        13.006
  
  
  *************************
  Highest Continuity Errors
  *************************
  Node T2 (38.74%)
  Node T4 (24.06%)
  Node T5 (23.91%)
  Node T6 (21.10%)
  Node T3 (21.02%)
  
  
  ***************************
  Time-Step Critical Elements
  ***************************
  None
  
  
  ********************************
  Highest Flow Instability Indexes
  ********************************
  All links are stable.
  
  
  *************************
  Routing Time Step Summary
  *************************
  Minimum Time Step           :     4.50 sec
  Average Time Step           :     5.00 sec
  Maximum Time Step           :     5.00 sec
  Percent in Steady State     :     0.00
  Average Iterations per Step :     2.01
  Percent Not Converging      :     0.04
  
  
  ***************************
  Subcatchment Runoff Summary
  ***************************
  
  ------------------------------------------------------------------------------------------------------------------------------
                            Total      Total      Total      Total     Imperv       Perv      Total       Total     Peak  Runoff
                           Precip      Runon       Evap      Infil     Runoff     Runoff     Runoff      Runoff   Runoff   Coeff
  Subcatchment                 mm         mm         mm         mm         mm         mm         mm    10^6 ltr      CMS
  ------------------------------------------------------------------------------------------------------------------------------
  SC01                       5.94       0.00       0.00       0.00       5.85       0.00       5.85        1.93     0.38   0.986
  SC02                       5.94       0.00       0.00       0.00       5.85       0.00       5.85        1.33     0.26   0.985
  SC03                       5.94       0.00       0.00       0.00       5.87       0.00       5.87        1.06     0.22   0.988
  SC04                       5.94       0.00       0.00       0.00       5.75       0.00       5.75        0.40     0.07   0.968
  SC05                       5.94       0.00       0.00       0.00       5.85       0.00       5.85        0.91     0.18   0.985
  SC06                       5.94       0.00       0.00       0.00       5.70       0.00       5.70        1.85     0.33   0.960
  SC07                       5.94       0.00       0.00       0.00       5.75       0.00       5.75        0.27     0.05   0.968
  SC08                       5.94       0.00       0.00       0.00       5.82       0.00       5.82        1.63     0.31   0.981
  SC09                       5.94       0.00       0.00       0.00       5.80       0.00       5.80        0.40     0.08   0.976
  SC010                      5.94       0.00       0.00       0.00       5.83       0.00       5.83        0.68     0.13   0.981
  
  
  ******************
  Node Depth Summary
  ******************
  
  ---------------------------------------------------------------------------------
                                 Average  Maximum  Maximum  Time of Max    Reported
                                   Depth    Depth      HGL   Occurrence   Max Depth
  Node                 Type       Meters   Meters   Meters  days hr:min      Meters
  ---------------------------------------------------------------------------------
  J1                   JUNCTION     0.07     0.15    34.15     0  03:01        0.15
  J3                   JUNCTION     0.10     0.13    18.13     0  05:06        0.13
  CSO7                 JUNCTION     0.10     0.22    34.22     0  03:01        0.22
  J5                   JUNCTION     0.06     0.12    32.12     0  03:01        0.12
  CSO9                 JUNCTION     0.11     0.57    40.57     0  03:00        0.49
  J8                   JUNCTION     0.11     0.22    36.22     0  03:01        0.22
  CSO8                 JUNCTION     0.13     0.40    32.40     0  03:01        0.40
  J10                  JUNCTION     0.09     0.22    29.22     0  03:01        0.22
  J13                  JUNCTION     0.06     0.14    29.14     0  03:01        0.14
  J15                  JUNCTION     0.16     0.27    15.27     0  03:02        0.27
  J16                  JUNCTION     0.07     0.16    30.16     0  03:01        0.16
  CSO10                JUNCTION     0.11     0.32    30.32     0  03:01        0.32
  J12                  JUNCTION     0.13     0.26    26.26     0  03:02        0.26
  J4                   JUNCTION     0.12     0.26    33.26     0  03:03        0.26
  J6                   JUNCTION     0.05     0.07    25.07     0  05:07        0.07
  J2                   JUNCTION     0.06     0.08    25.08     0  04:06        0.08
  J19                  JUNCTION     0.14     0.17     8.17     0  03:03        0.17
  J9                   JUNCTION     0.09     0.11    29.11     0  04:21        0.11
  J14                  JUNCTION     0.11     0.14    20.14     0  07:29        0.14
  J17                  JUNCTION     0.05     0.07    20.07     0  07:31        0.07
  J7                   JUNCTION     0.08     0.18    39.18     0  03:02        0.18
  J11                  JUNCTION     0.10     0.24    31.24     0  03:01        0.24
  J18                  JUNCTION     0.05     0.13    29.13     0  03:01        0.13
  Out_to_WWTP          OUTFALL      0.14     0.17     6.17     0  03:58        0.17
  T5                   STORAGE      2.87     4.32    31.32     0  03:57        4.32
  T4                   STORAGE      2.47     3.78    30.78     0  05:05        3.78
  T6                   STORAGE      3.41     5.00    36.00     0  03:05        5.00
  T3                   STORAGE      2.46     3.70    25.70     0  06:00        3.70
  T2                   STORAGE      2.42     3.67    24.67     0  07:10        3.67
  T1                   STORAGE      3.13     5.00    15.00     0  03:01        5.00
  
  
  *******************
  Node Inflow Summary
  *******************
  
  -------------------------------------------------------------------------------------------------
                                  Maximum  Maximum                  Lateral       Total        Flow
                                  Lateral    Total  Time of Max      Inflow      Inflow     Balance
                                   Inflow   Inflow   Occurrence      Volume      Volume       Error
  Node                 Type           CMS      CMS  days hr:min    10^6 ltr    10^6 ltr     Percent
  -------------------------------------------------------------------------------------------------
  J1                   JUNCTION     0.203    0.203     0  03:01        1.47        1.47       0.034
  J3                   JUNCTION     0.000    0.167     0  05:04           0        3.23       1.032
  CSO7                 JUNCTION     0.062    0.062     0  03:01       0.563       0.563       0.085
  J5                   JUNCTION     0.078    0.136     0  03:01       0.524        1.08       0.143
  CSO9                 JUNCTION     0.084    0.084     0  03:01       0.596       0.596       0.061
  J8                   JUNCTION     0.369    0.448     0  03:01         2.8        3.39       0.152
  CSO8                 JUNCTION     0.325    0.325     0  03:01        1.92        1.92       0.028
  J10                  JUNCTION     0.231    0.547     0  03:01        1.44        3.36       0.155
  J13                  JUNCTION     0.282    0.282     0  03:01         1.8         1.8      -0.198
  J15                  JUNCTION     0.000    0.655     0  03:01           0        6.88       1.109
  J16                  JUNCTION     0.406    0.406     0  03:01        2.48        2.48       0.008
  CSO10                JUNCTION     0.138    0.138     0  03:01       0.823       0.823       0.051
  J12                  JUNCTION     0.000    0.611     0  03:01           0        4.95       0.501
  J4                   JUNCTION     0.000    0.061     0  03:01           0       0.563       0.665
  J6                   JUNCTION     0.000    0.024     0  05:05           0        0.47       0.483
  J2                   JUNCTION     0.000    0.036     0  03:58           0       0.772       0.627
  J19                  JUNCTION     0.000    0.271     0  03:01           0        5.44       0.203
  J9                   JUNCTION     0.000    0.075     0  03:05           0        1.61       1.070
  J14                  JUNCTION     0.000    0.106     0  06:00           0           2       0.334
  J17                  JUNCTION     0.000    0.028     0  07:20           0       0.385       1.492
  J7                   JUNCTION     0.000    0.084     0  03:01           0       0.596       0.535
  J11                  JUNCTION     0.000    0.324     0  03:01           0        1.92       0.314
  J18                  JUNCTION     0.000    0.138     0  03:01           0       0.823       0.115
  Out_to_WWTP          OUTFALL      0.000    0.271     0  03:03           0        5.43       0.000
  T5                   STORAGE      0.000    0.201     0  03:01           0        1.47      31.425
  T4                   STORAGE      0.000    0.135     0  03:01           0        1.08      31.681
  T6                   STORAGE      0.000    0.442     0  03:01           0        3.38      26.743
  T3                   STORAGE      0.000    0.601     0  03:03           0        4.92      26.609
  T2                   STORAGE      0.000    0.279     0  03:01           0         1.8      63.238
  T1                   STORAGE      0.000    0.638     0  03:02           0        6.81       9.356
  
  
  **********************
  Node Surcharge Summary
  **********************
  
  Surcharging occurs when water rises above the top of the highest conduit.
  ---------------------------------------------------------------------
                                               Max. Height   Min. Depth
                                   Hours       Above Crown    Below Rim
  Node                 Type      Surcharged         Meters       Meters
  ---------------------------------------------------------------------
  CSO9                 JUNCTION        0.05          0.254        1.428
  
  
  *********************
  Node Flooding Summary
  *********************
  
  Flooding refers to all water that overflows a node, whether it ponds or not.
  --------------------------------------------------------------------------
                                                             Total   Maximum
                                 Maximum   Time of Max       Flood    Ponded
                        Hours       Rate    Occurrence      Volume     Depth
  Node                 Flooded       CMS   days hr:min    10^6 ltr    Meters
  --------------------------------------------------------------------------
  T6                      1.95     0.339      0  03:05       0.553     0.000
  T1                      0.73     0.368      0  03:02       0.304     0.000
  
  
  **********************
  Storage Volume Summary
  **********************
  
  --------------------------------------------------------------------------------------------------
                         Average     Avg  Evap Exfil       Maximum     Max    Time of Max    Maximum
                          Volume    Pcnt  Pcnt  Pcnt        Volume    Pcnt     Occurrence    Outflow
  Storage Unit           1000 m3    Full  Loss  Loss       1000 m3    Full    days hr:min        CMS
  --------------------------------------------------------------------------------------------------
  T5                       0.287      57     0     0         0.432      86       0  03:57      0.036
  T4                       0.247      49     0     0         0.378      76       0  05:05      0.024
  T6                       0.409      68     0     0         0.600     100       0  03:05      0.075
  T3                       1.278      49     0     0         1.925      74       0  06:00      0.106
  T2                       0.485      48     0     0         0.735      73       0  07:10      0.028
  T1                       0.438      63     0     0         0.700     100       0  03:01      0.271
  
  
  ***********************
  Outfall Loading Summary
  ***********************
  
  -----------------------------------------------------------
                         Flow       Avg       Max       Total
                         Freq      Flow      Flow      Volume
  Outfall Node           Pcnt       CMS       CMS    10^6 ltr
  -----------------------------------------------------------
  Out_to_WWTP           99.01     0.194     0.271       5.429
  -----------------------------------------------------------
  System                99.01     0.194     0.271       5.429
  
  
  ********************
  Link Flow Summary
  ********************
  
  -----------------------------------------------------------------------------
                                 Maximum  Time of Max   Maximum    Max/    Max/
                                  |Flow|   Occurrence   |Veloc|    Full    Full
  Link                 Type          CMS  days hr:min     m/sec    Flow   Depth
  -----------------------------------------------------------------------------
  C1                   CONDUIT     0.036     0  04:06      1.03    0.01    0.10
  C6                   CONDUIT     0.059     0  03:04      1.27    0.94    0.63
  C2                   CONDUIT     0.024     0  05:07      0.92    0.03    0.16
  C9                   CONDUIT     0.080     0  03:02      1.12    0.27    0.40
  C16                  CONDUIT     0.319     0  03:02      1.56    0.03    0.12
  C3                   CONDUIT     0.106     0  06:01      1.72    0.04    0.13
  C19                  CONDUIT     0.028     0  07:31      0.59    0.01    0.17
  C11                  CONDUIT     0.167     0  05:06      1.67    0.01    0.09
  C20                  CONDUIT     0.403     0  03:01      2.24    0.01    0.11
  C22                  CONDUIT     0.136     0  03:01      1.36    0.06    0.25
  C12                  CONDUIT     0.075     0  04:21      1.09    0.01    0.09
  C17                  CONDUIT     0.539     0  03:01      2.52    0.03    0.12
  C10                  CONDUIT     0.442     0  03:01      1.66    0.05    0.57
  C13                  CONDUIT     0.601     0  03:03      1.45    0.04    0.56
  C18                  CONDUIT     0.279     0  03:01      1.72    0.01    0.54
  C23                  CONDUIT     0.638     0  03:02      1.24    0.07    0.59
  C4                   CONDUIT     0.201     0  03:01      1.98    0.05    0.58
  C7                   CONDUIT     0.135     0  03:01      1.43    0.03    0.56
  C14                  CONDUIT     0.271     0  03:03      2.08    0.02    0.09
  C5                   CONDUIT     0.061     0  03:01      1.24    1.05    0.93
  C8                   CONDUIT     0.084     0  03:01      1.29    1.06    0.78
  C15                  CONDUIT     0.324     0  03:01      2.65    1.03    0.71
  C21                  CONDUIT     0.138     0  03:01      1.73    0.79    0.52
  V4                   ORIFICE     0.024     0  05:05                      0.35
  V5                   ORIFICE     0.036     0  03:58                      1.00
  V1                   ORIFICE     0.271     0  03:01                      1.00
  V6                   ORIFICE     0.075     0  03:05                      0.43
  V3                   ORIFICE     0.106     0  06:00                      0.65
  V2                   ORIFICE     0.028     0  07:20                      0.24
  
  
  ***************************
  Flow Classification Summary
  ***************************
  
  -------------------------------------------------------------------------------------
                      Adjusted    ---------- Fraction of Time in Flow Class ---------- 
                       /Actual         Up    Down  Sub   Sup   Up    Down  Norm  Inlet 
  Conduit               Length    Dry  Dry   Dry   Crit  Crit  Crit  Crit  Ltd   Ctrl  
  -------------------------------------------------------------------------------------
  C1                      1.00   0.00  0.00  0.00  0.00  1.00  0.00  0.00  0.94  0.00
  C6                      1.00   0.00  0.00  0.00  0.02  0.98  0.00  0.00  0.00  0.00
  C2                      1.00   0.00  0.00  0.00  0.65  0.35  0.00  0.00  0.95  0.00
  C9                      1.00   0.00  0.00  0.00  1.00  0.00  0.00  0.00  1.00  0.00
  C16                     1.00   0.00  0.00  0.00  0.57  0.43  0.00  0.00  0.46  0.00
  C3                      1.00   0.00  0.00  0.00  0.05  0.95  0.00  0.00  0.33  0.00
  C19                     1.00   0.00  0.00  0.00  1.00  0.00  0.00  0.00  1.00  0.00
  C11                     1.00   0.00  0.00  0.00  0.36  0.64  0.00  0.00  1.00  0.00
  C20                     1.00   0.00  0.00  0.00  0.54  0.46  0.00  0.00  0.98  0.00
  C22                     1.00   0.00  0.00  0.00  0.74  0.25  0.00  0.00  1.00  0.00
  C12                     1.00   0.00  0.00  0.00  0.49  0.51  0.00  0.00  1.00  0.00
  C17                     1.00   0.00  0.00  0.00  0.39  0.61  0.00  0.00  0.97  0.00
  C10                     1.00   0.00  0.00  0.00  0.96  0.04  0.00  0.00  0.97  0.00
  C13                     1.00   0.00  0.00  0.00  0.88  0.12  0.00  0.00  0.91  0.00
  C18                     1.00   0.00  0.00  0.00  0.94  0.06  0.00  0.00  0.97  0.00
  C23                     1.00   0.00  0.00  0.00  0.87  0.13  0.00  0.00  0.94  0.00
  C4                      1.00   0.00  0.00  0.00  0.96  0.04  0.00  0.00  0.98  0.00
  C7                      1.00   0.00  0.00  0.00  0.94  0.06  0.00  0.00  0.97  0.00
  C14                     1.00   0.00  0.00  0.00  0.00  0.99  0.00  0.00  0.22  0.00
  C5                      1.00   0.00  0.00  0.00  0.89  0.11  0.00  0.00  0.98  0.00
  C8                      1.00   0.00  0.00  0.00  0.07  0.93  0.00  0.00  0.00  0.00
  C15                     1.00   0.00  0.00  0.00  0.00  1.00  0.00  0.00  0.00  0.00
  C21                     1.00   0.00  0.00  0.00  0.00  1.00  0.00  0.00  0.00  0.00
  
  
  *************************
  Conduit Surcharge Summary
  *************************
  
  ----------------------------------------------------------------------------
                                                           Hours        Hours 
                         --------- Hours Full --------   Above Full   Capacity
  Conduit                Both Ends  Upstream  Dnstream   Normal Flow   Limited
  ----------------------------------------------------------------------------
  C10                         0.01      0.01      5.70      0.01         0.01
  C13                         0.01      0.01      5.06      0.01         0.01
  C18                         0.01      0.01      5.11      0.01         0.01
  C23                         0.01      0.01      5.76      0.01         0.01
  C4                          0.01      0.01      5.93      0.01         0.01
  C7                          0.01      0.01      5.63      0.01         0.01
  C5                          0.01      0.01      0.02      0.09         0.01
  C8                          0.01      0.05      0.01      0.06         0.01
  C15                         0.01      0.01      0.01      0.06         0.01
  

  Analysis begun on:  Fri Sep  3 19:35:46 2021
  Analysis ended on:  Fri Sep  3 19:35:46 2021
  Total elapsed time: < 1 sec