
  EPA STORM WATER MANAGEMENT MODEL - VERSION 5.1 (Build 5.3.0.dev0)
  --------------------------------------------------------------

  
  *********************************************************
  NOTE: The summary statistics displayed in this report are
  based on results found at every computational time step,  
  not just on results from each reporting time step.
  *********************************************************
  
  ****************
  Analysis Options
  ****************
  Flow Units ............... CMS
  Process Models:
    Rainfall/Runoff ........ YES
    RDII ................... NO
    Snowmelt ............... NO
    Groundwater ............ NO
    Flow Routing ........... YES
    Ponding Allowed ........ YES
    Water Quality .......... NO
  Infiltration Method ...... HORTON
  Flow Routing Method ...... DYNWAVE
  Surcharge Method ......... EXTRAN
  Starting Date ............ 08/28/2015 08:00:00
  Ending Date .............. 08/28/2015 15:50:00
  Antecedent Dry Days ...... 0.0
  Report Time Step ......... 00:01:00
  Wet Time Step ............ 00:01:00
  Dry Time Step ............ 00:01:00
  Routing Time Step ........ 5.00 sec
  Variable Time Step ....... YES
  Maximum Trials ........... 8
  Number of Threads ........ 1
  Head Tolerance ........... 0.001500 m
  
  
  **************************        Volume         Depth
  Runoff Quantity Continuity     hectare-m            mm
  **************************     ---------       -------
  Total Precipitation ......         0.680         3.775
  Evaporation Loss .........         0.000         0.000
  Infiltration Loss ........         0.000         0.000
  Surface Runoff ...........         0.658         3.650
  Final Storage ............         0.023         0.126
  Continuity Error (%) .....        -0.008
  
  
  **************************        Volume        Volume
  Flow Routing Continuity        hectare-m      10^6 ltr
  **************************     ---------     ---------
  Dry Weather Inflow .......         0.396         3.955
  Wet Weather Inflow .......         0.658         6.577
  Groundwater Inflow .......         0.000         0.000
  RDII Inflow ..............         0.000         0.000
  External Inflow ..........         0.000         0.000
  External Outflow .........         0.445         4.451
  Flooding Loss ............         0.000         0.000
  Evaporation Loss .........         0.000         0.000
  Exfiltration Loss ........         0.000         0.000
  Initial Stored Volume ....         0.000         0.000
  Final Stored Volume ......         0.508         5.078
  Continuity Error (%) .....         9.525
  
  
  *************************
  Highest Continuity Errors
  *************************
  Node T2 (38.78%)
  Node T6 (25.12%)
  Node T5 (22.21%)
  Node T4 (22.03%)
  Node T3 (20.34%)
  
  
  ***************************
  Time-Step Critical Elements
  ***************************
  None
  
  
  ********************************
  Highest Flow Instability Indexes
  ********************************
  All links are stable.
  
  
  *************************
  Routing Time Step Summary
  *************************
  Minimum Time Step           :     4.50 sec
  Average Time Step           :     5.00 sec
  Maximum Time Step           :     5.00 sec
  Percent in Steady State     :     0.00
  Average Iterations per Step :     2.00
  Percent Not Converging      :     0.00
  
  
  ***************************
  Subcatchment Runoff Summary
  ***************************
  
  ------------------------------------------------------------------------------------------------------------------------------
                            Total      Total      Total      Total     Imperv       Perv      Total       Total     Peak  Runoff
                           Precip      Runon       Evap      Infil     Runoff     Runoff     Runoff      Runoff   Runoff   Coeff
  Subcatchment                 mm         mm         mm         mm         mm         mm         mm    10^6 ltr      CMS
  ------------------------------------------------------------------------------------------------------------------------------
  SC01                       3.78       0.00       0.00       0.00       3.69       0.00       3.69        1.22     0.27   0.978
  SC02                       3.78       0.00       0.00       0.00       3.69       0.00       3.69        0.84     0.18   0.976
  SC03                       3.78       0.00       0.00       0.00       3.71       0.00       3.71        0.67     0.15   0.982
  SC04                       3.78       0.00       0.00       0.00       3.59       0.00       3.59        0.25     0.05   0.951
  SC05                       3.78       0.00       0.00       0.00       3.68       0.00       3.68        0.57     0.12   0.976
  SC06                       3.78       0.00       0.00       0.00       3.54       0.00       3.54        1.15     0.21   0.939
  SC07                       3.78       0.00       0.00       0.00       3.59       0.00       3.59        0.17     0.03   0.951
  SC08                       3.78       0.00       0.00       0.00       3.66       0.00       3.66        1.03     0.21   0.970
  SC09                       3.78       0.00       0.00       0.00       3.64       0.00       3.64        0.25     0.05   0.964
  SC010                      3.78       0.00       0.00       0.00       3.67       0.00       3.67        0.43     0.09   0.971
  
  
  ******************
  Node Depth Summary
  ******************
  
  ---------------------------------------------------------------------------------
                                 Average  Maximum  Maximum  Time of Max    Reported
                                   Depth    Depth      HGL   Occurrence   Max Depth
  Node                 Type       Meters   Meters   Meters  days hr:min      Meters
  ---------------------------------------------------------------------------------
  J1                   JUNCTION     0.07     0.13    34.13     0  03:01        0.13
  J3                   JUNCTION     0.09     0.12    18.12     0  06:07        0.12
  CSO7                 JUNCTION     0.09     0.17    34.17     0  03:01        0.17
  J5                   JUNCTION     0.06     0.10    32.10     0  03:02        0.10
  CSO9                 JUNCTION     0.09     0.21    40.21     0  03:01        0.21
  J8                   JUNCTION     0.10     0.18    36.18     0  03:02        0.18
  CSO8                 JUNCTION     0.11     0.29    32.29     0  03:01        0.29
  J10                  JUNCTION     0.08     0.19    29.19     0  03:01        0.19
  J13                  JUNCTION     0.06     0.12    29.12     0  03:01        0.12
  J15                  JUNCTION     0.14     0.23    15.23     0  03:02        0.23
  J16                  JUNCTION     0.06     0.13    30.13     0  03:01        0.13
  CSO10                JUNCTION     0.10     0.25    30.25     0  03:01        0.25
  J12                  JUNCTION     0.12     0.22    26.22     0  03:03        0.22
  J4                   JUNCTION     0.11     0.20    33.20     0  03:03        0.20
  J6                   JUNCTION     0.05     0.06    25.06     0  05:49        0.06
  J2                   JUNCTION     0.06     0.07    25.07     0  04:42        0.07
  J19                  JUNCTION     0.13     0.16     8.16     0  03:33        0.16
  J9                   JUNCTION     0.09     0.11    29.11     0  05:05        0.11
  J14                  JUNCTION     0.10     0.13    20.13     0  07:50        0.13
  J17                  JUNCTION     0.04     0.06    20.06     0  03:30        0.06
  J7                   JUNCTION     0.07     0.15    39.15     0  03:02        0.15
  J11                  JUNCTION     0.08     0.20    31.20     0  03:02        0.20
  J18                  JUNCTION     0.05     0.11    29.11     0  03:02        0.11
  Out_to_WWTP          OUTFALL      0.12     0.16     6.16     0  03:33        0.16
  T5                   STORAGE      1.94     2.91    29.91     0  04:40        2.91
  T4                   STORAGE      1.70     2.63    29.63     0  05:47        2.63
  T6                   STORAGE      2.79     4.40    35.40     0  05:02        4.40
  T3                   STORAGE      1.66     2.61    24.61     0  07:32        2.61
  T2                   STORAGE      1.60     2.53    23.53     0  07:50        2.53
  T1                   STORAGE      2.13     3.59    13.59     0  03:32        3.59
  
  
  *******************
  Node Inflow Summary
  *******************
  
  -------------------------------------------------------------------------------------------------
                                  Maximum  Maximum                  Lateral       Total        Flow
                                  Lateral    Total  Time of Max      Inflow      Inflow     Balance
                                   Inflow   Inflow   Occurrence      Volume      Volume       Error
  Node                 Type           CMS      CMS  days hr:min    10^6 ltr    10^6 ltr     Percent
  -------------------------------------------------------------------------------------------------
  J1                   JUNCTION     0.147    0.147     0  03:01        1.14        1.14       0.061
  J3                   JUNCTION     0.000    0.138     0  06:04           0        2.68       1.152
  CSO7                 JUNCTION     0.044    0.044     0  03:01       0.461       0.461       0.098
  J5                   JUNCTION     0.053    0.094     0  03:01       0.375       0.832       0.200
  CSO9                 JUNCTION     0.059    0.059     0  03:01       0.447       0.447       0.098
  J8                   JUNCTION     0.248    0.303     0  03:01        2.09        2.54       0.216
  CSO8                 JUNCTION     0.224    0.224     0  03:01        1.32        1.32       0.041
  J10                  JUNCTION     0.167    0.382     0  03:01        1.05        2.36       0.234
  J13                  JUNCTION     0.200    0.200     0  03:01        1.31        1.31      -0.210
  J15                  JUNCTION     0.000    0.475     0  03:01           0        5.28       1.277
  J16                  JUNCTION     0.289    0.289     0  03:01        1.77        1.77       0.038
  CSO10                JUNCTION     0.096    0.096     0  03:01        0.57        0.57       0.075
  J12                  JUNCTION     0.000    0.428     0  03:01           0         3.8       0.672
  J4                   JUNCTION     0.000    0.044     0  03:01           0       0.461       0.817
  J6                   JUNCTION     0.000    0.020     0  05:47           0       0.405       0.785
  J2                   JUNCTION     0.000    0.030     0  04:40           0       0.638       0.664
  J19                  JUNCTION     0.000    0.229     0  03:32           0        4.46       0.216
  J9                   JUNCTION     0.000    0.071     0  05:02           0        1.45       1.109
  J14                  JUNCTION     0.000    0.089     0  07:32           0        1.65       0.358
  J17                  JUNCTION     0.000    0.021     0  03:30           0       0.295       0.985
  J7                   JUNCTION     0.000    0.058     0  03:01           0       0.447       0.722
  J11                  JUNCTION     0.000    0.223     0  03:01           0        1.32       0.444
  J18                  JUNCTION     0.000    0.095     0  03:01           0       0.569       0.196
  Out_to_WWTP          OUTFALL      0.000    0.229     0  03:33           0        4.45       0.000
  T5                   STORAGE      0.000    0.145     0  03:01           0        1.14      28.558
  T4                   STORAGE      0.000    0.092     0  03:02           0        0.83      28.256
  T6                   STORAGE      0.000    0.297     0  03:02           0        2.53      33.544
  T3                   STORAGE      0.000    0.418     0  03:03           0        3.77      25.540
  T2                   STORAGE      0.000    0.198     0  03:01           0        1.31      63.345
  T1                   STORAGE      0.000    0.462     0  03:02           0        5.21       8.716
  
  
  **********************
  Node Surcharge Summary
  **********************
  
  No nodes were surcharged.
  
  
  *********************
  Node Flooding Summary
  *********************
  
  No nodes were flooded.
  
  
  **********************
  Storage Volume Summary
  **********************
  
  --------------------------------------------------------------------------------------------------
                         Average     Avg  Evap Exfil       Maximum     Max    Time of Max    Maximum
                          Volume    Pcnt  Pcnt  Pcnt        Volume    Pcnt     Occurrence    Outflow
  Storage Unit           1000 m3    Full  Loss  Loss       1000 m3    Full    days hr:min        CMS
  --------------------------------------------------------------------------------------------------
  T5                       0.194      39     0     0         0.291      58       0  04:40      0.030
  T4                       0.170      34     0     0         0.263      53       0  05:47      0.020
  T6                       0.335      56     0     0         0.528      88       0  05:02      0.071
  T3                       0.864      33     0     0         1.356      52       0  07:32      0.089
  T2                       0.321      32     0     0         0.507      51       0  07:50      0.021
  T1                       0.298      43     0     0         0.502      72       0  03:32      0.229
  
  
  ***********************
  Outfall Loading Summary
  ***********************
  
  -----------------------------------------------------------
                         Flow       Avg       Max       Total
                         Freq      Flow      Flow      Volume
  Outfall Node           Pcnt       CMS       CMS    10^6 ltr
  -----------------------------------------------------------
  Out_to_WWTP           99.01     0.159     0.229       4.451
  -----------------------------------------------------------
  System                99.01     0.159     0.229       4.451
  
  
  ********************
  Link Flow Summary
  ********************
  
  -----------------------------------------------------------------------------
                                 Maximum  Time of Max   Maximum    Max/    Max/
                                  |Flow|   Occurrence   |Veloc|    Full    Full
  Link                 Type          CMS  days hr:min     m/sec    Flow   Depth
  -----------------------------------------------------------------------------
  C1                   CONDUIT     0.030     0  04:42      0.98    0.01    0.09
  C6                   CONDUIT     0.042     0  03:03      1.20    0.67    0.50
  C2                   CONDUIT     0.020     0  05:49      0.87    0.02    0.15
  C9                   CONDUIT     0.056     0  03:02      1.00    0.19    0.33
  C16                  CONDUIT     0.217     0  03:02      1.38    0.02    0.10
  C3                   CONDUIT     0.089     0  07:33      1.61    0.03    0.12
  C19                  CONDUIT     0.021     0  03:30      0.42    0.01    0.14
  C11                  CONDUIT     0.138     0  06:07      1.58    0.01    0.08
  C20                  CONDUIT     0.285     0  03:01      2.00    0.01    0.09
  C22                  CONDUIT     0.093     0  03:02      1.18    0.04    0.21
  C12                  CONDUIT     0.071     0  05:05      1.07    0.01    0.08
  C17                  CONDUIT     0.374     0  03:01      2.26    0.02    0.10
  C10                  CONDUIT     0.297     0  03:02      1.66    0.03    0.56
  C13                  CONDUIT     0.418     0  03:03      1.45    0.02    0.54
  C18                  CONDUIT     0.198     0  03:01      1.72    0.01    0.52
  C23                  CONDUIT     0.462     0  03:02      1.24    0.05    0.58
  C4                   CONDUIT     0.145     0  03:01      1.98    0.04    0.56
  C7                   CONDUIT     0.092     0  03:02      1.43    0.02    0.55
  C14                  CONDUIT     0.229     0  03:33      1.98    0.01    0.08
  C5                   CONDUIT     0.044     0  03:01      1.22    0.75    0.70
  C8                   CONDUIT     0.058     0  03:01      1.26    0.73    0.56
  C15                  CONDUIT     0.223     0  03:01      2.48    0.71    0.55
  C21                  CONDUIT     0.095     0  03:01      1.60    0.54    0.41
  V4                   ORIFICE     0.020     0  05:47                      0.35
  V5                   ORIFICE     0.030     0  04:40                      1.00
  V1                   ORIFICE     0.229     0  03:32                      1.00
  V6                   ORIFICE     0.071     0  05:02                      0.43
  V3                   ORIFICE     0.089     0  07:32                      0.65
  V2                   ORIFICE     0.021     0  03:30                      0.24
  
  
  ***************************
  Flow Classification Summary
  ***************************
  
  -------------------------------------------------------------------------------------
                      Adjusted    ---------- Fraction of Time in Flow Class ---------- 
                       /Actual         Up    Down  Sub   Sup   Up    Down  Norm  Inlet 
  Conduit               Length    Dry  Dry   Dry   Crit  Crit  Crit  Crit  Ltd   Ctrl  
  -------------------------------------------------------------------------------------
  C1                      1.00   0.00  0.00  0.00  0.16  0.84  0.00  0.00  0.94  0.00
  C6                      1.00   0.00  0.00  0.00  0.01  0.99  0.00  0.00  0.00  0.00
  C2                      1.00   0.00  0.00  0.00  0.65  0.35  0.00  0.00  0.95  0.00
  C9                      1.00   0.00  0.00  0.00  1.00  0.00  0.00  0.00  1.00  0.00
  C16                     1.00   0.00  0.00  0.00  0.61  0.39  0.00  0.00  0.51  0.00
  C3                      1.00   0.00  0.00  0.00  0.05  0.95  0.00  0.00  0.33  0.00
  C19                     1.00   0.00  0.00  0.00  1.00  0.00  0.00  0.00  1.00  0.00
  C11                     1.00   0.00  0.00  0.00  0.35  0.64  0.00  0.00  1.00  0.00
  C20                     1.00   0.00  0.00  0.00  0.53  0.47  0.00  0.00  0.98  0.00
  C22                     1.00   0.00  0.00  0.00  0.82  0.18  0.00  0.00  1.00  0.00
  C12                     1.00   0.00  0.00  0.00  0.49  0.51  0.00  0.00  1.00  0.00
  C17                     1.00   0.00  0.00  0.00  0.38  0.62  0.00  0.00  0.97  0.00
  C10                     1.00   0.00  0.00  0.00  0.96  0.04  0.00  0.00  0.97  0.00
  C13                     1.00   0.00  0.00  0.00  0.88  0.12  0.00  0.00  0.91  0.00
  C18                     1.00   0.00  0.00  0.00  0.94  0.06  0.00  0.00  0.97  0.00
  C23                     1.00   0.00  0.00  0.00  0.87  0.13  0.00  0.00  0.94  0.00
  C4                      1.00   0.00  0.00  0.00  0.96  0.04  0.00  0.00  0.98  0.00
  C7                      1.00   0.00  0.00  0.00  0.94  0.06  0.00  0.00  0.97  0.00
  C14                     1.00   0.00  0.00  0.00  0.00  0.99  0.00  0.00  0.41  0.00
  C5                      1.00   0.00  0.00  0.00  0.88  0.12  0.00  0.00  0.98  0.00
  C8                      1.00   0.00  0.00  0.00  0.00  1.00  0.00  0.00  0.00  0.00
  C15                     1.00   0.00  0.00  0.00  0.00  1.00  0.00  0.00  0.00  0.00
  C21                     1.00   0.00  0.00  0.00  0.00  1.00  0.00  0.00  0.00  0.00
  
  
  *************************
  Conduit Surcharge Summary
  *************************
  
  ----------------------------------------------------------------------------
                                                           Hours        Hours 
                         --------- Hours Full --------   Above Full   Capacity
  Conduit                Both Ends  Upstream  Dnstream   Normal Flow   Limited
  ----------------------------------------------------------------------------
  C10                         0.01      0.01      5.32      0.01         0.01
  C13                         0.01      0.01      4.47      0.01         0.01
  C18                         0.01      0.01      4.31      0.01         0.01
  C23                         0.01      0.01      5.35      0.01         0.01
  C4                          0.01      0.01      5.58      0.01         0.01
  C7                          0.01      0.01      5.26      0.01         0.01
  

  Analysis begun on:  Fri Sep  3 19:31:34 2021
  Analysis ended on:  Fri Sep  3 19:31:34 2021
  Total elapsed time: < 1 sec