
  EPA STORM WATER MANAGEMENT MODEL - VERSION 5.1 (Build 5.3.0.dev0)
  --------------------------------------------------------------

  
  *********************************************************
  NOTE: The summary statistics displayed in this report are
  based on results found at every computational time step,  
  not just on results from each reporting time step.
  *********************************************************
  
  ****************
  Analysis Options
  ****************
  Flow Units ............... CMS
  Process Models:
    Rainfall/Runoff ........ YES
    RDII ................... NO
    Snowmelt ............... NO
    Groundwater ............ NO
    Flow Routing ........... YES
    Ponding Allowed ........ YES
    Water Quality .......... NO
  Infiltration Method ...... HORTON
  Flow Routing Method ...... DYNWAVE
  Surcharge Method ......... EXTRAN
  Starting Date ............ 08/28/2015 08:00:00
  Ending Date .............. 08/28/2015 15:50:00
  Antecedent Dry Days ...... 0.0
  Report Time Step ......... 00:01:00
  Wet Time Step ............ 00:01:00
  Dry Time Step ............ 00:01:00
  Routing Time Step ........ 5.00 sec
  Variable Time Step ....... YES
  Maximum Trials ........... 8
  Number of Threads ........ 1
  Head Tolerance ........... 0.001500 m
  
  
  **************************        Volume         Depth
  Runoff Quantity Continuity     hectare-m            mm
  **************************     ---------       -------
  Total Precipitation ......         0.887         4.920
  Evaporation Loss .........         0.000         0.000
  Infiltration Loss ........         0.000         0.000
  Surface Runoff ...........         0.864         4.793
  Final Storage ............         0.023         0.128
  Continuity Error (%) .....        -0.008
  
  
  **************************        Volume        Volume
  Flow Routing Continuity        hectare-m      10^6 ltr
  **************************     ---------     ---------
  Dry Weather Inflow .......         0.396         3.955
  Wet Weather Inflow .......         0.864         8.637
  Groundwater Inflow .......         0.000         0.000
  RDII Inflow ..............         0.000         0.000
  External Inflow ..........         0.000         0.000
  External Outflow .........         0.510         5.104
  Flooding Loss ............         0.019         0.194
  Evaporation Loss .........         0.000         0.000
  Exfiltration Loss ........         0.000         0.000
  Initial Stored Volume ....         0.000         0.000
  Final Stored Volume ......         0.577         5.768
  Continuity Error (%) .....        12.123
  
  
  *************************
  Highest Continuity Errors
  *************************
  Node T2 (38.76%)
  Node T6 (23.91%)
  Node T5 (23.20%)
  Node T4 (23.14%)
  Node T3 (20.83%)
  
  
  ***************************
  Time-Step Critical Elements
  ***************************
  None
  
  
  ********************************
  Highest Flow Instability Indexes
  ********************************
  All links are stable.
  
  
  *************************
  Routing Time Step Summary
  *************************
  Minimum Time Step           :     4.50 sec
  Average Time Step           :     5.00 sec
  Maximum Time Step           :     5.00 sec
  Percent in Steady State     :     0.00
  Average Iterations per Step :     2.00
  Percent Not Converging      :     0.00
  
  
  ***************************
  Subcatchment Runoff Summary
  ***************************
  
  ------------------------------------------------------------------------------------------------------------------------------
                            Total      Total      Total      Total     Imperv       Perv      Total       Total     Peak  Runoff
                           Precip      Runon       Evap      Infil     Runoff     Runoff     Runoff      Runoff   Runoff   Coeff
  Subcatchment                 mm         mm         mm         mm         mm         mm         mm    10^6 ltr      CMS
  ------------------------------------------------------------------------------------------------------------------------------
  SC01                       4.92       0.00       0.00       0.00       4.84       0.00       4.84        1.60     0.35   0.983
  SC02                       4.92       0.00       0.00       0.00       4.83       0.00       4.83        1.10     0.24   0.982
  SC03                       4.92       0.00       0.00       0.00       4.85       0.00       4.85        0.87     0.20   0.986
  SC04                       4.92       0.00       0.00       0.00       4.73       0.00       4.73        0.33     0.06   0.962
  SC05                       4.92       0.00       0.00       0.00       4.83       0.00       4.83        0.75     0.17   0.981
  SC06                       4.92       0.00       0.00       0.00       4.68       0.00       4.68        1.52     0.29   0.952
  SC07                       4.92       0.00       0.00       0.00       4.73       0.00       4.73        0.22     0.04   0.962
  SC08                       4.92       0.00       0.00       0.00       4.81       0.00       4.81        1.35     0.29   0.977
  SC09                       4.92       0.00       0.00       0.00       4.78       0.00       4.78        0.33     0.07   0.972
  SC010                      4.92       0.00       0.00       0.00       4.81       0.00       4.81        0.57     0.12   0.977
  
  
  ******************
  Node Depth Summary
  ******************
  
  ---------------------------------------------------------------------------------
                                 Average  Maximum  Maximum  Time of Max    Reported
                                   Depth    Depth      HGL   Occurrence   Max Depth
  Node                 Type       Meters   Meters   Meters  days hr:min      Meters
  ---------------------------------------------------------------------------------
  J1                   JUNCTION     0.07     0.14    34.14     0  03:01        0.14
  J3                   JUNCTION     0.10     0.12    18.12     0  05:35        0.12
  CSO7                 JUNCTION     0.10     0.20    34.20     0  03:01        0.20
  J5                   JUNCTION     0.06     0.12    32.12     0  03:01        0.12
  CSO9                 JUNCTION     0.10     0.27    40.27     0  03:01        0.26
  J8                   JUNCTION     0.10     0.21    36.21     0  03:01        0.21
  CSO8                 JUNCTION     0.12     0.36    32.36     0  03:01        0.36
  J10                  JUNCTION     0.09     0.21    29.21     0  03:01        0.21
  J13                  JUNCTION     0.06     0.14    29.14     0  03:01        0.14
  J15                  JUNCTION     0.15     0.26    15.26     0  03:02        0.26
  J16                  JUNCTION     0.06     0.15    30.15     0  03:01        0.15
  CSO10                JUNCTION     0.11     0.30    30.30     0  03:01        0.30
  J12                  JUNCTION     0.13     0.24    26.24     0  03:03        0.24
  J4                   JUNCTION     0.12     0.23    33.23     0  03:03        0.23
  J6                   JUNCTION     0.05     0.07    25.07     0  05:16        0.07
  J2                   JUNCTION     0.06     0.07    25.07     0  04:18        0.07
  J19                  JUNCTION     0.13     0.17     8.17     0  03:31        0.17
  J9                   JUNCTION     0.09     0.11    29.11     0  04:42        0.11
  J14                  JUNCTION     0.10     0.14    20.14     0  07:50        0.14
  J17                  JUNCTION     0.04     0.07    20.07     0  07:50        0.07
  J7                   JUNCTION     0.08     0.17    39.17     0  03:02        0.17
  J11                  JUNCTION     0.09     0.23    31.23     0  03:02        0.23
  J18                  JUNCTION     0.05     0.13    29.13     0  03:02        0.13
  Out_to_WWTP          OUTFALL      0.13     0.17     6.17     0  03:31        0.17
  T5                   STORAGE      2.42     3.65    30.65     0  04:16        3.65
  T4                   STORAGE      2.10     3.24    30.24     0  05:14        3.24
  T6                   STORAGE      3.28     5.00    36.00     0  03:31        5.00
  T3                   STORAGE      2.09     3.21    25.21     0  06:42        3.21
  T2                   STORAGE      2.02     3.12    24.12     0  07:31        3.12
  T1                   STORAGE      2.80     4.80    14.80     0  03:31        4.80
  
  
  *******************
  Node Inflow Summary
  *******************
  
  -------------------------------------------------------------------------------------------------
                                  Maximum  Maximum                  Lateral       Total        Flow
                                  Lateral    Total  Time of Max      Inflow      Inflow     Balance
                                   Inflow   Inflow   Occurrence      Volume      Volume       Error
  Node                 Type           CMS      CMS  days hr:min    10^6 ltr    10^6 ltr     Percent
  -------------------------------------------------------------------------------------------------
  J1                   JUNCTION     0.188    0.188     0  03:01        1.32        1.32       0.046
  J3                   JUNCTION     0.000    0.154     0  05:33           0        2.97       1.067
  CSO7                 JUNCTION     0.056    0.056     0  03:01       0.515       0.515       0.089
  J5                   JUNCTION     0.069    0.121     0  03:01       0.454       0.965       0.168
  CSO9                 JUNCTION     0.076    0.076     0  03:01       0.526       0.526       0.084
  J8                   JUNCTION     0.326    0.397     0  03:01        2.47        2.99       0.180
  CSO8                 JUNCTION     0.296    0.296     0  03:01        1.64        1.64       0.033
  J10                  JUNCTION     0.216    0.500     0  03:01        1.26        2.89       0.185
  J13                  JUNCTION     0.260    0.260     0  03:01        1.57        1.57      -0.200
  J15                  JUNCTION     0.000    0.598     0  03:01           0        6.13       1.195
  J16                  JUNCTION     0.376    0.376     0  03:01        2.15        2.15       0.020
  CSO10                JUNCTION     0.126    0.126     0  03:01       0.704       0.704       0.060
  J12                  JUNCTION     0.000    0.553     0  03:01           0        4.44       0.581
  J4                   JUNCTION     0.000    0.056     0  03:01           0       0.515       0.730
  J6                   JUNCTION     0.000    0.023     0  05:14           0       0.442       0.487
  J2                   JUNCTION     0.000    0.034     0  04:16           0        0.71       0.644
  J19                  JUNCTION     0.000    0.265     0  03:31           0        5.11       0.206
  J9                   JUNCTION     0.000    0.075     0  03:31           0        1.57       1.085
  J14                  JUNCTION     0.000    0.099     0  06:42           0        1.84       0.348
  J17                  JUNCTION     0.000    0.026     0  07:40           0       0.342       1.589
  J7                   JUNCTION     0.000    0.075     0  03:01           0       0.526       0.610
  J11                  JUNCTION     0.000    0.294     0  03:01           0        1.64       0.363
  J18                  JUNCTION     0.000    0.125     0  03:01           0       0.704       0.147
  Out_to_WWTP          OUTFALL      0.000    0.265     0  03:31           0         5.1       0.000
  T5                   STORAGE      0.000    0.186     0  03:01           0        1.31      30.204
  T4                   STORAGE      0.000    0.120     0  03:01           0       0.963      30.105
  T6                   STORAGE      0.000    0.390     0  03:01           0        2.98      31.417
  T3                   STORAGE      0.000    0.541     0  03:03           0        4.42      26.318
  T2                   STORAGE      0.000    0.257     0  03:01           0        1.57      63.303
  T1                   STORAGE      0.000    0.577     0  03:02           0        6.06       9.386
  
  
  **********************
  Node Surcharge Summary
  **********************
  
  No nodes were surcharged.
  
  
  *********************
  Node Flooding Summary
  *********************
  
  Flooding refers to all water that overflows a node, whether it ponds or not.
  --------------------------------------------------------------------------
                                                             Total   Maximum
                                 Maximum   Time of Max       Flood    Ponded
                        Hours       Rate    Occurrence      Volume     Depth
  Node                 Flooded       CMS   days hr:min    10^6 ltr    Meters
  --------------------------------------------------------------------------
  T6                      1.50     0.113      0  03:31       0.194     0.000
  
  
  **********************
  Storage Volume Summary
  **********************
  
  --------------------------------------------------------------------------------------------------
                         Average     Avg  Evap Exfil       Maximum     Max    Time of Max    Maximum
                          Volume    Pcnt  Pcnt  Pcnt        Volume    Pcnt     Occurrence    Outflow
  Storage Unit           1000 m3    Full  Loss  Loss       1000 m3    Full    days hr:min        CMS
  --------------------------------------------------------------------------------------------------
  T5                       0.242      48     0     0         0.365      73       0  04:16      0.034
  T4                       0.210      42     0     0         0.324      65       0  05:14      0.023
  T6                       0.394      66     0     0         0.600     100       0  03:31      0.075
  T3                       1.086      42     0     0         1.670      64       0  06:42      0.099
  T2                       0.405      40     0     0         0.625      62       0  07:31      0.026
  T1                       0.391      56     0     0         0.673      96       0  03:31      0.265
  
  
  ***********************
  Outfall Loading Summary
  ***********************
  
  -----------------------------------------------------------
                         Flow       Avg       Max       Total
                         Freq      Flow      Flow      Volume
  Outfall Node           Pcnt       CMS       CMS    10^6 ltr
  -----------------------------------------------------------
  Out_to_WWTP           99.01     0.183     0.265       5.104
  -----------------------------------------------------------
  System                99.01     0.183     0.265       5.104
  
  
  ********************
  Link Flow Summary
  ********************
  
  -----------------------------------------------------------------------------
                                 Maximum  Time of Max   Maximum    Max/    Max/
                                  |Flow|   Occurrence   |Veloc|    Full    Full
  Link                 Type          CMS  days hr:min     m/sec    Flow   Depth
  -----------------------------------------------------------------------------
  C1                   CONDUIT     0.034     0  04:18      1.01    0.01    0.10
  C6                   CONDUIT     0.053     0  03:03      1.26    0.85    0.58
  C2                   CONDUIT     0.023     0  05:16      0.90    0.03    0.16
  C9                   CONDUIT     0.073     0  03:02      1.09    0.25    0.37
  C16                  CONDUIT     0.287     0  03:02      1.50    0.03    0.11
  C3                   CONDUIT     0.099     0  06:43      1.69    0.04    0.13
  C19                  CONDUIT     0.026     0  07:50      0.57    0.01    0.16
  C11                  CONDUIT     0.154     0  05:35      1.63    0.01    0.09
  C20                  CONDUIT     0.372     0  03:01      2.22    0.01    0.10
  C22                  CONDUIT     0.123     0  03:02      1.32    0.06    0.24
  C12                  CONDUIT     0.075     0  04:42      1.09    0.01    0.09
  C17                  CONDUIT     0.490     0  03:01      2.46    0.02    0.11
  C10                  CONDUIT     0.390     0  03:01      1.66    0.04    0.57
  C13                  CONDUIT     0.541     0  03:03      1.45    0.03    0.56
  C18                  CONDUIT     0.257     0  03:01      1.72    0.01    0.53
  C23                  CONDUIT     0.577     0  03:02      1.24    0.06    0.59
  C4                   CONDUIT     0.186     0  03:01      1.98    0.05    0.57
  C7                   CONDUIT     0.120     0  03:01      1.43    0.03    0.56
  C14                  CONDUIT     0.265     0  03:31      2.06    0.01    0.08
  C5                   CONDUIT     0.056     0  03:01      1.22    0.95    0.84
  C8                   CONDUIT     0.075     0  03:01      1.30    0.94    0.68
  C15                  CONDUIT     0.294     0  03:01      2.64    0.94    0.65
  C21                  CONDUIT     0.125     0  03:01      1.70    0.72    0.49
  V4                   ORIFICE     0.023     0  05:14                      0.35
  V5                   ORIFICE     0.034     0  04:16                      1.00
  V1                   ORIFICE     0.265     0  03:31                      1.00
  V6                   ORIFICE     0.075     0  03:31                      0.43
  V3                   ORIFICE     0.099     0  06:42                      0.65
  V2                   ORIFICE     0.026     0  07:40                      0.24
  
  
  ***************************
  Flow Classification Summary
  ***************************
  
  -------------------------------------------------------------------------------------
                      Adjusted    ---------- Fraction of Time in Flow Class ---------- 
                       /Actual         Up    Down  Sub   Sup   Up    Down  Norm  Inlet 
  Conduit               Length    Dry  Dry   Dry   Crit  Crit  Crit  Crit  Ltd   Ctrl  
  -------------------------------------------------------------------------------------
  C1                      1.00   0.00  0.00  0.00  0.08  0.92  0.00  0.00  0.94  0.00
  C6                      1.00   0.00  0.00  0.00  0.01  0.99  0.00  0.00  0.00  0.00
  C2                      1.00   0.00  0.00  0.00  0.65  0.35  0.00  0.00  0.95  0.00
  C9                      1.00   0.00  0.00  0.00  1.00  0.00  0.00  0.00  1.00  0.00
  C16                     1.00   0.00  0.00  0.00  0.59  0.41  0.00  0.00  0.48  0.00
  C3                      1.00   0.00  0.00  0.00  0.05  0.95  0.00  0.00  0.33  0.00
  C19                     1.00   0.00  0.00  0.00  1.00  0.00  0.00  0.00  1.00  0.00
  C11                     1.00   0.00  0.00  0.00  0.36  0.64  0.00  0.00  1.00  0.00
  C20                     1.00   0.00  0.00  0.00  0.53  0.47  0.00  0.00  0.98  0.00
  C22                     1.00   0.00  0.00  0.00  0.77  0.23  0.00  0.00  1.00  0.00
  C12                     1.00   0.00  0.00  0.00  0.48  0.51  0.00  0.00  1.00  0.00
  C17                     1.00   0.00  0.00  0.00  0.39  0.61  0.00  0.00  0.97  0.00
  C10                     1.00   0.00  0.00  0.00  0.96  0.04  0.00  0.00  0.97  0.00
  C13                     1.00   0.00  0.00  0.00  0.88  0.12  0.00  0.00  0.91  0.00
  C18                     1.00   0.00  0.00  0.00  0.94  0.06  0.00  0.00  0.97  0.00
  C23                     1.00   0.00  0.00  0.00  0.87  0.13  0.00  0.00  0.94  0.00
  C4                      1.00   0.00  0.00  0.00  0.96  0.04  0.00  0.00  0.98  0.00
  C7                      1.00   0.00  0.00  0.00  0.94  0.06  0.00  0.00  0.97  0.00
  C14                     1.00   0.00  0.00  0.00  0.00  0.99  0.00  0.00  0.31  0.00
  C5                      1.00   0.00  0.00  0.00  0.89  0.11  0.00  0.00  0.98  0.00
  C8                      1.00   0.00  0.00  0.00  0.03  0.97  0.00  0.00  0.00  0.00
  C15                     1.00   0.00  0.00  0.00  0.00  1.00  0.00  0.00  0.00  0.00
  C21                     1.00   0.00  0.00  0.00  0.00  1.00  0.00  0.00  0.00  0.00
  
  
  *************************
  Conduit Surcharge Summary
  *************************
  
  ----------------------------------------------------------------------------
                                                           Hours        Hours 
                         --------- Hours Full --------   Above Full   Capacity
  Conduit                Both Ends  Upstream  Dnstream   Normal Flow   Limited
  ----------------------------------------------------------------------------
  C10                         0.01      0.01      5.52      0.01         0.01
  C13                         0.01      0.01      4.82      0.01         0.01
  C18                         0.01      0.01      4.86      0.01         0.01
  C23                         0.01      0.01      5.57      0.01         0.01
  C4                          0.01      0.01      5.76      0.01         0.01
  C7                          0.01      0.01      5.46      0.01         0.01
  

  Analysis begun on:  Fri Sep  3 19:37:27 2021
  Analysis ended on:  Fri Sep  3 19:37:27 2021
  Total elapsed time: < 1 sec