
  EPA STORM WATER MANAGEMENT MODEL - VERSION 5.1 (Build 5.3.0.dev0)
  --------------------------------------------------------------

  
  *********************************************************
  NOTE: The summary statistics displayed in this report are
  based on results found at every computational time step,  
  not just on results from each reporting time step.
  *********************************************************
  
  ****************
  Analysis Options
  ****************
  Flow Units ............... CMS
  Process Models:
    Rainfall/Runoff ........ YES
    RDII ................... NO
    Snowmelt ............... NO
    Groundwater ............ NO
    Flow Routing ........... YES
    Ponding Allowed ........ YES
    Water Quality .......... NO
  Infiltration Method ...... HORTON
  Flow Routing Method ...... DYNWAVE
  Surcharge Method ......... EXTRAN
  Starting Date ............ 08/28/2015 08:00:00
  Ending Date .............. 08/28/2015 15:50:00
  Antecedent Dry Days ...... 0.0
  Report Time Step ......... 00:01:00
  Wet Time Step ............ 00:01:00
  Dry Time Step ............ 00:01:00
  Routing Time Step ........ 5.00 sec
  Variable Time Step ....... YES
  Maximum Trials ........... 8
  Number of Threads ........ 1
  Head Tolerance ........... 0.001500 m
  
  
  **************************        Volume         Depth
  Runoff Quantity Continuity     hectare-m            mm
  **************************     ---------       -------
  Total Precipitation ......         2.498        13.865
  Evaporation Loss .........         0.000         0.000
  Infiltration Loss ........         0.000         0.000
  Surface Runoff ...........         2.475        13.734
  Final Storage ............         0.024         0.132
  Continuity Error (%) .....        -0.006
  
  
  **************************        Volume        Volume
  Flow Routing Continuity        hectare-m      10^6 ltr
  **************************     ---------     ---------
  Dry Weather Inflow .......         0.396         3.955
  Wet Weather Inflow .......         2.475        24.749
  Groundwater Inflow .......         0.000         0.000
  RDII Inflow ..............         0.000         0.000
  External Inflow ..........         0.000         0.000
  External Outflow .........         0.593         5.934
  Flooding Loss ............         1.206        12.060
  Evaporation Loss .........         0.000         0.000
  Exfiltration Loss ........         0.000         0.000
  Initial Stored Volume ....         0.000         0.000
  Final Stored Volume ......         0.803         8.030
  Continuity Error (%) .....         9.337
  
  
  *************************
  Highest Continuity Errors
  *************************
  Node T2 (24.94%)
  Node T3 (18.47%)
  Node T4 (18.34%)
  Node T5 (14.70%)
  Node T6 (12.70%)
  
  
  ***************************
  Time-Step Critical Elements
  ***************************
  None
  
  
  ********************************
  Highest Flow Instability Indexes
  ********************************
  All links are stable.
  
  
  *************************
  Routing Time Step Summary
  *************************
  Minimum Time Step           :     4.50 sec
  Average Time Step           :     5.00 sec
  Maximum Time Step           :     5.00 sec
  Percent in Steady State     :     0.00
  Average Iterations per Step :     2.19
  Percent Not Converging      :     0.57
  
  
  ***************************
  Subcatchment Runoff Summary
  ***************************
  
  ------------------------------------------------------------------------------------------------------------------------------
                            Total      Total      Total      Total     Imperv       Perv      Total       Total     Peak  Runoff
                           Precip      Runon       Evap      Infil     Runoff     Runoff     Runoff      Runoff   Runoff   Coeff
  Subcatchment                 mm         mm         mm         mm         mm         mm         mm    10^6 ltr      CMS
  ------------------------------------------------------------------------------------------------------------------------------
  SC01                      13.86       0.00       0.00       0.00      13.78       0.00      13.78        4.55     1.14   0.994
  SC02                      13.86       0.00       0.00       0.00      13.77       0.00      13.77        3.13     0.78   0.993
  SC03                      13.86       0.00       0.00       0.00      13.80       0.00      13.80        2.48     0.65   0.995
  SC04                      13.86       0.00       0.00       0.00      13.67       0.00      13.67        0.94     0.20   0.986
  SC05                      13.86       0.00       0.00       0.00      13.77       0.00      13.77        2.15     0.53   0.993
  SC06                      13.86       0.00       0.00       0.00      13.61       0.00      13.61        4.43     0.92   0.982
  SC07                      13.86       0.00       0.00       0.00      13.67       0.00      13.67        0.65     0.14   0.986
  SC08                      13.86       0.00       0.00       0.00      13.75       0.00      13.75        3.85     0.91   0.992
  SC09                      13.86       0.00       0.00       0.00      13.72       0.00      13.72        0.95     0.22   0.990
  SC010                     13.86       0.00       0.00       0.00      13.75       0.00      13.75        1.62     0.39   0.992
  
  
  ******************
  Node Depth Summary
  ******************
  
  ---------------------------------------------------------------------------------
                                 Average  Maximum  Maximum  Time of Max    Reported
                                   Depth    Depth      HGL   Occurrence   Max Depth
  Node                 Type       Meters   Meters   Meters  days hr:min      Meters
  ---------------------------------------------------------------------------------
  J1                   JUNCTION     0.09     0.25    34.25     0  02:18        0.25
  J3                   JUNCTION     0.11     0.14    18.14     0  04:29        0.14
  CSO7                 JUNCTION     0.28     1.20    35.20     0  01:54        1.20
  J5                   JUNCTION     0.08     0.18    32.18     0  02:22        0.18
  CSO9                 JUNCTION     0.39     2.00    42.00     0  02:00        2.00
  J8                   JUNCTION     0.13     0.34    36.34     0  02:23        0.34
  CSO8                 JUNCTION     0.41     2.00    34.00     0  01:57        2.00
  J10                  JUNCTION     0.11     0.32    29.32     0  02:18        0.32
  J13                  JUNCTION     0.08     0.24    29.24     0  02:18        0.24
  J15                  JUNCTION     0.19     0.41    15.41     0  02:21        0.41
  J16                  JUNCTION     0.08     0.26    30.26     0  02:18        0.26
  CSO10                JUNCTION     0.23     1.00    31.00     0  01:56        1.00
  J12                  JUNCTION     0.68     1.10    27.10     0  03:01        1.10
  J4                   JUNCTION     0.21     1.22    34.22     0  01:54        0.76
  J6                   JUNCTION     0.06     0.07    25.07     0  03:49        0.07
  J2                   JUNCTION     0.07     0.08    25.08     0  03:11        0.08
  J19                  JUNCTION     0.14     0.17     8.17     0  02:11        0.17
  J9                   JUNCTION     0.09     0.11    29.11     0  03:59        0.11
  J14                  JUNCTION     0.11     0.15    20.15     0  05:01        0.15
  J17                  JUNCTION     0.06     0.08    20.08     0  03:33        0.08
  J7                   JUNCTION     0.10     0.23    39.23     0  02:57        0.23
  J11                  JUNCTION     0.12     0.30    31.30     0  02:56        0.30
  J18                  JUNCTION     0.07     0.16    29.16     0  02:33        0.16
  Out_to_WWTP          OUTFALL      0.14     0.17     6.17     0  02:10        0.17
  T5                   STORAGE      3.61     5.00    32.00     0  02:19        5.00
  T4                   STORAGE      3.60     5.00    32.00     0  02:42        5.00
  T6                   STORAGE      3.79     5.00    36.00     0  02:15        5.00
  T3                   STORAGE      3.60     5.00    27.00     0  02:56        5.00
  T2                   STORAGE      3.66     5.00    26.00     0  02:31        5.00
  T1                   STORAGE      3.64     5.00    15.00     0  02:09        5.00
  
  
  *******************
  Node Inflow Summary
  *******************
  
  -------------------------------------------------------------------------------------------------
                                  Maximum  Maximum                  Lateral       Total        Flow
                                  Lateral    Total  Time of Max      Inflow      Inflow     Balance
                                   Inflow   Inflow   Occurrence      Volume      Volume       Error
  Node                 Type           CMS      CMS  days hr:min    10^6 ltr    10^6 ltr     Percent
  -------------------------------------------------------------------------------------------------
  J1                   JUNCTION     0.553    0.553     0  02:18        2.71        2.71       0.007
  J3                   JUNCTION     0.000    0.191     0  03:32           0        3.67       1.042
  CSO7                 JUNCTION     0.151    0.151     0  02:21        0.94        0.94       0.051
  J5                   JUNCTION     0.209    0.281     0  02:21        1.07        1.82       0.076
  CSO9                 JUNCTION     0.224    0.224     0  02:20        1.14        1.14       0.040
  J8                   JUNCTION     0.949    1.076     0  02:23        5.37        6.34       0.072
  CSO8                 JUNCTION     0.925    0.925     0  02:19        4.14        4.14       0.013
  J10                  JUNCTION     0.667    1.153     0  02:17        2.87        6.25      -0.048
  J13                  JUNCTION     0.795    0.795     0  02:18         3.6         3.6      -0.146
  J15                  JUNCTION     0.000    1.526     0  02:18           0        10.8       0.746
  J16                  JUNCTION     1.163    1.163     0  02:18         5.1         5.1      -0.017
  CSO10                JUNCTION     0.392    0.392     0  02:19        1.75        1.75       0.018
  J12                  JUNCTION     0.000    1.222     0  02:18           0        7.82       8.490
  J4                   JUNCTION     0.000    0.073     0  01:54           0        0.75       0.445
  J6                   JUNCTION     0.000    0.028     0  02:42           0       0.564       0.714
  J2                   JUNCTION     0.000    0.039     0  02:19           0       0.872       0.583
  J19                  JUNCTION     0.000    0.271     0  02:09           0        5.95       0.200
  J9                   JUNCTION     0.000    0.075     0  02:15           0        1.56       1.169
  J14                  JUNCTION     0.000    0.124     0  03:30           0        2.25       0.325
  J17                  JUNCTION     0.000    0.033     0  02:31           0       0.665       0.621
  J7                   JUNCTION     0.000    0.127     0  02:57           0       0.975       0.318
  J11                  JUNCTION     0.000    0.487     0  02:56           0        3.39       0.190
  J18                  JUNCTION     0.000    0.202     0  02:33           0        1.43       0.051
  Out_to_WWTP          OUTFALL      0.000    0.271     0  02:11           0        5.93       0.000
  T5                   STORAGE      0.000    0.553     0  02:18           0        2.71      17.229
  T4                   STORAGE      0.000    0.281     0  02:22           0        1.82      22.461
  T6                   STORAGE      0.000    1.076     0  02:23           0        6.34      14.553
  T3                   STORAGE      0.000    1.475     0  03:04           0        7.21      22.651
  T2                   STORAGE      0.000    0.794     0  02:18           0        3.61      33.233
  T1                   STORAGE      0.000    1.504     0  02:21           0        10.7       6.929
  
  
  **********************
  Node Surcharge Summary
  **********************
  
  Surcharging occurs when water rises above the top of the highest conduit.
  ---------------------------------------------------------------------
                                               Max. Height   Min. Depth
                                   Hours       Above Crown    Below Rim
  Node                 Type      Surcharged         Meters       Meters
  ---------------------------------------------------------------------
  CSO7                 JUNCTION        1.39          0.945        0.000
  CSO9                 JUNCTION        1.41          1.682        0.000
  CSO8                 JUNCTION        1.40          1.547        0.000
  CSO10                JUNCTION        1.18          0.560        0.000
  J4                   JUNCTION        1.36          0.924        0.776
  
  
  *********************
  Node Flooding Summary
  *********************
  
  Flooding refers to all water that overflows a node, whether it ponds or not.
  --------------------------------------------------------------------------
                                                             Total   Maximum
                                 Maximum   Time of Max       Flood    Ponded
                        Hours       Rate    Occurrence      Volume     Depth
  Node                 Flooded       CMS   days hr:min    10^6 ltr    Meters
  --------------------------------------------------------------------------
  CSO7                    1.21     0.079      0  02:21       0.189     0.000
  CSO9                    0.95     0.097      0  02:20       0.167     0.000
  CSO8                    1.00     0.439      0  02:19       0.753     0.000
  CSO10                   1.02     0.189      0  02:19       0.327     0.000
  T5                      1.59     0.513      0  02:19       1.039     0.000
  T4                      2.35     0.208      0  02:42       0.462     0.000
  T6                      2.88     1.000      0  02:23       3.407     0.000
  T3                      1.45     1.415      0  03:04       1.108     0.000
  T2                      2.26     0.610      0  02:31       1.097     0.000
  T1                      1.73     1.233      0  02:21       3.512     0.000
  
  
  **********************
  Storage Volume Summary
  **********************
  
  --------------------------------------------------------------------------------------------------
                         Average     Avg  Evap Exfil       Maximum     Max    Time of Max    Maximum
                          Volume    Pcnt  Pcnt  Pcnt        Volume    Pcnt     Occurrence    Outflow
  Storage Unit           1000 m3    Full  Loss  Loss       1000 m3    Full    days hr:min        CMS
  --------------------------------------------------------------------------------------------------
  T5                       0.361      72     0     0         0.500     100       0  02:19      0.039
  T4                       0.360      72     0     0         0.500     100       0  02:42      0.028
  T6                       0.455      76     0     0         0.600     100       0  02:15      0.075
  T3                       1.870      72     0     0         2.600     100       0  02:56      0.189
  T2                       0.733      73     0     0         1.000     100       0  02:31      0.033
  T1                       0.510      73     0     0         0.700     100       0  02:09      0.271
  
  
  ***********************
  Outfall Loading Summary
  ***********************
  
  -----------------------------------------------------------
                         Flow       Avg       Max       Total
                         Freq      Flow      Flow      Volume
  Outfall Node           Pcnt       CMS       CMS    10^6 ltr
  -----------------------------------------------------------
  Out_to_WWTP           99.01     0.213     0.271       5.934
  -----------------------------------------------------------
  System                99.01     0.213     0.271       5.934
  
  
  ********************
  Link Flow Summary
  ********************
  
  -----------------------------------------------------------------------------
                                 Maximum  Time of Max   Maximum    Max/    Max/
                                  |Flow|   Occurrence   |Veloc|    Full    Full
  Link                 Type          CMS  days hr:min     m/sec    Flow   Depth
  -----------------------------------------------------------------------------
  C1                   CONDUIT     0.039     0  03:08      1.05    0.01    0.11
  C6                   CONDUIT     0.072     0  02:22      1.29    1.15    0.80
  C2                   CONDUIT     0.028     0  03:31      1.01    0.03    0.18
  C9                   CONDUIT     0.127     0  02:57      1.30    0.43    0.57
  C16                  CONDUIT     0.488     0  02:07      1.79    0.05    0.15
  C3                   CONDUIT     0.124     0  03:32      1.81    0.05    0.14
  C19                  CONDUIT     0.033     0  03:33      0.65    0.01    0.24
  C11                  CONDUIT     0.191     0  04:29      1.75    0.01    0.13
  C20                  CONDUIT     1.162     0  02:18      3.38    0.04    0.17
  C22                  CONDUIT     0.202     0  02:33      1.59    0.09    0.36
  C12                  CONDUIT     0.075     0  03:59      0.59    0.01    0.30
  C17                  CONDUIT     1.148     0  02:18      3.24    0.06    0.34
  C10                  CONDUIT     1.076     0  02:23      1.66    0.11    0.61
  C13                  CONDUIT     1.475     0  03:04      1.45    0.09    0.77
  C18                  CONDUIT     0.794     0  02:18      1.72    0.03    0.56
  C23                  CONDUIT     1.504     0  02:21      1.26    0.17    0.64
  C4                   CONDUIT     0.553     0  02:18      1.98    0.13    0.62
  C7                   CONDUIT     0.281     0  02:22      1.43    0.07    0.59
  C14                  CONDUIT     0.271     0  02:11      2.08    0.02    0.09
  C5                   CONDUIT     0.073     0  01:54      1.42    1.24    1.00
  C8                   CONDUIT     0.127     0  02:57      1.75    1.60    0.86
  C15                  CONDUIT     0.487     0  02:56      3.42    1.55    0.83
  C21                  CONDUIT     0.202     0  02:33      1.82    1.16    0.69
  V4                   ORIFICE     0.028     0  02:42                      0.35
  V5                   ORIFICE     0.039     0  02:19                      1.00
  V1                   ORIFICE     0.271     0  02:09                      1.00
  V6                   ORIFICE     0.075     0  02:15                      0.43
  V3                   ORIFICE     0.124     0  03:30                      0.65
  V2                   ORIFICE     0.033     0  02:31                      0.24
  
  
  ***************************
  Flow Classification Summary
  ***************************
  
  -------------------------------------------------------------------------------------
                      Adjusted    ---------- Fraction of Time in Flow Class ---------- 
                       /Actual         Up    Down  Sub   Sup   Up    Down  Norm  Inlet 
  Conduit               Length    Dry  Dry   Dry   Crit  Crit  Crit  Crit  Ltd   Ctrl  
  -------------------------------------------------------------------------------------
  C1                      1.00   0.00  0.00  0.00  0.21  0.79  0.00  0.00  0.94  0.00
  C6                      1.00   0.00  0.00  0.00  0.20  0.80  0.00  0.00  0.00  0.00
  C2                      1.00   0.00  0.00  0.00  0.50  0.50  0.00  0.00  0.95  0.00
  C9                      1.00   0.00  0.00  0.00  1.00  0.00  0.00  0.00  1.00  0.00
  C16                     1.00   0.00  0.00  0.00  0.55  0.45  0.00  0.00  0.49  0.00
  C3                      1.00   0.00  0.00  0.00  0.05  0.95  0.00  0.00  0.41  0.00
  C19                     1.00   0.00  0.00  0.00  1.00  0.00  0.00  0.00  1.00  0.00
  C11                     1.00   0.00  0.00  0.00  0.37  0.63  0.00  0.00  1.00  0.00
  C20                     1.00   0.00  0.00  0.00  0.55  0.45  0.00  0.00  0.98  0.00
  C22                     1.00   0.00  0.00  0.00  0.77  0.23  0.00  0.00  1.00  0.00
  C12                     1.00   0.00  0.00  0.00  1.00  0.00  0.00  0.00  1.00  0.00
  C17                     1.00   0.00  0.00  0.00  0.66  0.34  0.00  0.00  0.93  0.00
  C10                     1.00   0.00  0.00  0.00  0.96  0.04  0.00  0.00  0.97  0.00
  C13                     1.00   0.00  0.00  0.00  0.85  0.14  0.00  0.00  0.24  0.00
  C18                     1.00   0.00  0.00  0.00  0.94  0.06  0.00  0.00  0.97  0.00
  C23                     1.00   0.00  0.00  0.00  0.85  0.15  0.00  0.00  0.94  0.00
  C4                      1.00   0.00  0.00  0.00  0.96  0.04  0.00  0.00  0.98  0.00
  C7                      1.00   0.00  0.00  0.00  0.94  0.06  0.00  0.00  0.97  0.00
  C14                     1.00   0.00  0.00  0.00  0.00  0.99  0.00  0.00  0.45  0.00
  C5                      1.00   0.00  0.00  0.00  0.91  0.09  0.00  0.00  0.80  0.00
  C8                      1.00   0.00  0.00  0.00  0.21  0.79  0.00  0.00  0.00  0.00
  C15                     1.00   0.00  0.00  0.00  0.00  1.00  0.00  0.00  0.00  0.00
  C21                     1.00   0.00  0.00  0.00  0.00  1.00  0.00  0.00  0.00  0.00
  
  
  *************************
  Conduit Surcharge Summary
  *************************
  
  ----------------------------------------------------------------------------
                                                           Hours        Hours 
                         --------- Hours Full --------   Above Full   Capacity
  Conduit                Both Ends  Upstream  Dnstream   Normal Flow   Limited
  ----------------------------------------------------------------------------
  C6                          0.01      1.36      0.01      1.26         0.01
  C10                         0.01      0.01      6.06      0.01         0.01
  C13                         0.01      0.01      5.72      0.01         0.01
  C18                         0.01      0.01      5.80      0.01         0.01
  C23                         0.01      0.01      6.12      0.01         0.01
  C4                          0.01      0.01      6.22      0.01         0.01
  C7                          0.01      0.01      6.00      0.01         0.01
  C5                          1.38      1.39      1.48      1.44         1.35
  C8                          0.01      1.41      0.01      1.44         0.01
  C15                         0.01      1.40      0.01      1.46         0.01
  C21                         0.01      1.18      0.01      1.18         0.01
  

  Analysis begun on:  Fri Sep  3 19:34:37 2021
  Analysis ended on:  Fri Sep  3 19:34:37 2021
  Total elapsed time: < 1 sec