
  EPA STORM WATER MANAGEMENT MODEL - VERSION 5.1 (Build 5.3.0.dev0)
  --------------------------------------------------------------

  
  *********************************************************
  NOTE: The summary statistics displayed in this report are
  based on results found at every computational time step,  
  not just on results from each reporting time step.
  *********************************************************
  
  ****************
  Analysis Options
  ****************
  Flow Units ............... CMS
  Process Models:
    Rainfall/Runoff ........ YES
    RDII ................... NO
    Snowmelt ............... NO
    Groundwater ............ NO
    Flow Routing ........... YES
    Ponding Allowed ........ YES
    Water Quality .......... NO
  Infiltration Method ...... HORTON
  Flow Routing Method ...... DYNWAVE
  Surcharge Method ......... EXTRAN
  Starting Date ............ 08/28/2015 08:00:00
  Ending Date .............. 08/28/2015 15:50:00
  Antecedent Dry Days ...... 0.0
  Report Time Step ......... 00:01:00
  Wet Time Step ............ 00:01:00
  Dry Time Step ............ 00:01:00
  Routing Time Step ........ 5.00 sec
  Variable Time Step ....... YES
  Maximum Trials ........... 8
  Number of Threads ........ 1
  Head Tolerance ........... 0.001500 m
  
  
  **************************        Volume         Depth
  Runoff Quantity Continuity     hectare-m            mm
  **************************     ---------       -------
  Total Precipitation ......         1.081         6.001
  Evaporation Loss .........         0.000         0.000
  Infiltration Loss ........         0.000         0.000
  Surface Runoff ...........         1.058         5.871
  Final Storage ............         0.024         0.131
  Continuity Error (%) .....        -0.009
  
  
  **************************        Volume        Volume
  Flow Routing Continuity        hectare-m      10^6 ltr
  **************************     ---------     ---------
  Dry Weather Inflow .......         0.396         3.956
  Wet Weather Inflow .......         1.058        10.580
  Groundwater Inflow .......         0.000         0.000
  RDII Inflow ..............         0.000         0.000
  External Inflow ..........         0.000         0.000
  External Outflow .........         0.534         5.336
  Flooding Loss ............         0.097         0.970
  Evaporation Loss .........         0.000         0.000
  Exfiltration Loss ........         0.000         0.000
  Initial Stored Volume ....         0.000         0.000
  Final Stored Volume ......         0.632         6.315
  Continuity Error (%) .....        13.169
  
  
  *************************
  Highest Continuity Errors
  *************************
  Node T2 (39.01%)
  Node T5 (24.26%)
  Node T4 (24.16%)
  Node T3 (21.19%)
  Node T6 (21.07%)
  
  
  ***************************
  Time-Step Critical Elements
  ***************************
  None
  
  
  ********************************
  Highest Flow Instability Indexes
  ********************************
  All links are stable.
  
  
  *************************
  Routing Time Step Summary
  *************************
  Minimum Time Step           :     0.70 sec
  Average Time Step           :     5.00 sec
  Maximum Time Step           :     5.00 sec
  Percent in Steady State     :     0.00
  Average Iterations per Step :     2.13
  Percent Not Converging      :     0.53
  
  
  ***************************
  Subcatchment Runoff Summary
  ***************************
  
  ------------------------------------------------------------------------------------------------------------------------------
                            Total      Total      Total      Total     Imperv       Perv      Total       Total     Peak  Runoff
                           Precip      Runon       Evap      Infil     Runoff     Runoff     Runoff      Runoff   Runoff   Coeff
  Subcatchment                 mm         mm         mm         mm         mm         mm         mm    10^6 ltr      CMS
  ------------------------------------------------------------------------------------------------------------------------------
  SC01                       6.00       0.00       0.00       0.00       5.91       0.00       5.91        1.95     0.58   0.986
  SC02                       6.00       0.00       0.00       0.00       5.91       0.00       5.91        1.34     0.39   0.985
  SC03                       6.00       0.00       0.00       0.00       5.93       0.00       5.93        1.07     0.34   0.989
  SC04                       6.00       0.00       0.00       0.00       5.81       0.00       5.81        0.40     0.10   0.968
  SC05                       6.00       0.00       0.00       0.00       5.91       0.00       5.91        0.92     0.27   0.985
  SC06                       6.00       0.00       0.00       0.00       5.76       0.00       5.76        1.87     0.44   0.959
  SC07                       6.00       0.00       0.00       0.00       5.81       0.00       5.81        0.28     0.07   0.968
  SC08                       6.00       0.00       0.00       0.00       5.88       0.00       5.88        1.65     0.46   0.980
  SC09                       6.00       0.00       0.00       0.00       5.86       0.00       5.86        0.40     0.11   0.976
  SC010                      6.00       0.00       0.00       0.00       5.89       0.00       5.89        0.69     0.19   0.981
  
  
  ******************
  Node Depth Summary
  ******************
  
  ---------------------------------------------------------------------------------
                                 Average  Maximum  Maximum  Time of Max    Reported
                                   Depth    Depth      HGL   Occurrence   Max Depth
  Node                 Type       Meters   Meters   Meters  days hr:min      Meters
  ---------------------------------------------------------------------------------
  J1                   JUNCTION     0.07     0.18    34.18     0  03:01        0.18
  J3                   JUNCTION     0.10     0.13    18.13     0  05:07        0.13
  CSO7                 JUNCTION     0.12     1.20    35.20     0  02:59        1.20
  J5                   JUNCTION     0.06     0.14    32.14     0  03:01        0.14
  CSO9                 JUNCTION     0.13     1.57    41.57     0  03:01        1.56
  J8                   JUNCTION     0.11     0.25    36.25     0  03:01        0.25
  CSO8                 JUNCTION     0.15     1.83    33.83     0  03:01        1.82
  J10                  JUNCTION     0.09     0.27    29.27     0  03:01        0.27
  J13                  JUNCTION     0.06     0.17    29.17     0  03:01        0.17
  J15                  JUNCTION     0.16     0.31    15.31     0  03:02        0.31
  J16                  JUNCTION     0.07     0.19    30.19     0  03:01        0.19
  CSO10                JUNCTION     0.12     1.00    31.00     0  02:59        0.95
  J12                  JUNCTION     0.13     0.29    26.29     0  03:03        0.29
  J4                   JUNCTION     0.13     1.28    34.28     0  02:59        0.98
  J6                   JUNCTION     0.05     0.07    25.07     0  05:08        0.07
  J2                   JUNCTION     0.06     0.08    25.08     0  04:10        0.08
  J19                  JUNCTION     0.14     0.17     8.17     0  03:06        0.17
  J9                   JUNCTION     0.09     0.11    29.11     0  04:26        0.11
  J14                  JUNCTION     0.10     0.14    20.14     0  07:39        0.14
  J17                  JUNCTION     0.05     0.07    20.07     0  07:41        0.07
  J7                   JUNCTION     0.08     0.21    39.21     0  03:02        0.21
  J11                  JUNCTION     0.10     0.28    31.28     0  03:01        0.28
  J18                  JUNCTION     0.05     0.16    29.16     0  03:01        0.16
  Out_to_WWTP          OUTFALL      0.14     0.17     6.17     0  04:03        0.17
  T5                   STORAGE      2.86     4.41    31.41     0  04:08        4.41
  T4                   STORAGE      2.46     3.86    30.86     0  05:06        3.86
  T6                   STORAGE      3.34     5.00    36.00     0  03:09        5.00
  T3                   STORAGE      2.43     3.74    25.74     0  06:00        3.74
  T2                   STORAGE      2.40     3.71    24.71     0  07:20        3.71
  T1                   STORAGE      3.06     5.00    15.00     0  03:04        5.00
  
  
  *******************
  Node Inflow Summary
  *******************
  
  -------------------------------------------------------------------------------------------------
                                  Maximum  Maximum                  Lateral       Total        Flow
                                  Lateral    Total  Time of Max      Inflow      Inflow     Balance
                                   Inflow   Inflow   Occurrence      Volume      Volume       Error
  Node                 Type           CMS      CMS  days hr:min    10^6 ltr    10^6 ltr     Percent
  -------------------------------------------------------------------------------------------------
  J1                   JUNCTION     0.293    0.293     0  03:01        1.48        1.48       0.039
  J3                   JUNCTION     0.000    0.168     0  05:04           0        3.19       1.045
  CSO7                 JUNCTION     0.080    0.080     0  03:01       0.566       0.566       0.080
  J5                   JUNCTION     0.104    0.174     0  03:01       0.528        1.09       0.152
  CSO9                 JUNCTION     0.115    0.115     0  03:01         0.6         0.6       0.073
  J8                   JUNCTION     0.474    0.579     0  03:01        2.81        3.41       0.160
  CSO8                 JUNCTION     0.466    0.466     0  03:01        1.94        1.94       0.028
  J10                  JUNCTION     0.356    0.788     0  03:01        1.45        3.39       0.153
  J13                  JUNCTION     0.414    0.414     0  03:01        1.81        1.81      -0.180
  J15                  JUNCTION     0.000    0.891     0  03:01           0        6.87       1.124
  J16                  JUNCTION     0.605    0.605     0  03:01        2.51        2.51       0.003
  CSO10                JUNCTION     0.199    0.199     0  03:01       0.831       0.831       0.038
  J12                  JUNCTION     0.000    0.829     0  03:01           0        4.95       0.520
  J4                   JUNCTION     0.000    0.073     0  02:58           0       0.564       0.599
  J6                   JUNCTION     0.000    0.025     0  05:06           0        0.47       0.487
  J2                   JUNCTION     0.000    0.037     0  04:08           0       0.766       0.638
  J19                  JUNCTION     0.000    0.271     0  03:04           0        5.35       0.207
  J9                   JUNCTION     0.000    0.075     0  03:09           0        1.59       1.090
  J14                  JUNCTION     0.000    0.107     0  06:00           0        1.97       0.340
  J17                  JUNCTION     0.000    0.029     0  07:30           0       0.376       1.541
  J7                   JUNCTION     0.000    0.115     0  03:01           0         0.6       0.530
  J11                  JUNCTION     0.000    0.466     0  03:01           0        1.94       0.313
  J18                  JUNCTION     0.000    0.199     0  03:01           0       0.831       0.117
  Out_to_WWTP          OUTFALL      0.000    0.271     0  03:06           0        5.34       0.000
  T5                   STORAGE      0.000    0.287     0  03:01           0        1.48      32.024
  T4                   STORAGE      0.000    0.171     0  03:01           0        1.09      31.849
  T6                   STORAGE      0.000    0.564     0  03:02           0        3.41      26.701
  T3                   STORAGE      0.000    0.797     0  03:03           0        4.93      26.889
  T2                   STORAGE      0.000    0.405     0  03:01           0        1.82      63.974
  T1                   STORAGE      0.000    0.833     0  03:02           0        6.79       9.438
  
  
  **********************
  Node Surcharge Summary
  **********************
  
  Surcharging occurs when water rises above the top of the highest conduit.
  ---------------------------------------------------------------------
                                               Max. Height   Min. Depth
                                   Hours       Above Crown    Below Rim
  Node                 Type      Surcharged         Meters       Meters
  ---------------------------------------------------------------------
  CSO7                 JUNCTION        0.26          0.945        0.000
  CSO9                 JUNCTION        0.29          1.254        0.428
  CSO8                 JUNCTION        0.25          1.381        0.166
  CSO10                JUNCTION        0.07          0.560        0.000
  J4                   JUNCTION        0.23          0.985        0.715
  
  
  *********************
  Node Flooding Summary
  *********************
  
  Flooding refers to all water that overflows a node, whether it ponds or not.
  --------------------------------------------------------------------------
                                                             Total   Maximum
                                 Maximum   Time of Max       Flood    Ponded
                        Hours       Rate    Occurrence      Volume     Depth
  Node                 Flooded       CMS   days hr:min    10^6 ltr    Meters
  --------------------------------------------------------------------------
  CSO7                    0.08     0.009      0  03:01       0.002     0.000
  CSO10                   0.01     0.009      0  02:59       0.000     0.000
  T6                      1.92     0.374      0  03:09       0.595     0.000
  T1                      0.74     0.542      0  03:04       0.374     0.000
  
  
  **********************
  Storage Volume Summary
  **********************
  
  --------------------------------------------------------------------------------------------------
                         Average     Avg  Evap Exfil       Maximum     Max    Time of Max    Maximum
                          Volume    Pcnt  Pcnt  Pcnt        Volume    Pcnt     Occurrence    Outflow
  Storage Unit           1000 m3    Full  Loss  Loss       1000 m3    Full    days hr:min        CMS
  --------------------------------------------------------------------------------------------------
  T5                       0.286      57     0     0         0.441      88       0  04:08      0.037
  T4                       0.246      49     0     0         0.386      77       0  05:06      0.025
  T6                       0.400      67     0     0         0.600     100       0  03:09      0.075
  T3                       1.262      49     0     0         1.946      75       0  06:00      0.107
  T2                       0.480      48     0     0         0.743      74       0  07:20      0.029
  T1                       0.429      61     0     0         0.700     100       0  03:04      0.271
  
  
  ***********************
  Outfall Loading Summary
  ***********************
  
  -----------------------------------------------------------
                         Flow       Avg       Max       Total
                         Freq      Flow      Flow      Volume
  Outfall Node           Pcnt       CMS       CMS    10^6 ltr
  -----------------------------------------------------------
  Out_to_WWTP           99.01     0.191     0.271       5.335
  -----------------------------------------------------------
  System                99.01     0.191     0.271       5.335
  
  
  ********************
  Link Flow Summary
  ********************
  
  -----------------------------------------------------------------------------
                                 Maximum  Time of Max   Maximum    Max/    Max/
                                  |Flow|   Occurrence   |Veloc|    Full    Full
  Link                 Type          CMS  days hr:min     m/sec    Flow   Depth
  -----------------------------------------------------------------------------
  C1                   CONDUIT     0.037     0  04:10      1.04    0.01    0.10
  C6                   CONDUIT     0.071     0  03:02      1.29    1.12    0.73
  C2                   CONDUIT     0.025     0  05:08      0.93    0.03    0.17
  C9                   CONDUIT     0.107     0  03:02      1.24    0.37    0.45
  C16                  CONDUIT     0.444     0  03:02      1.71    0.04    0.14
  C3                   CONDUIT     0.107     0  06:00      1.72    0.04    0.13
  C19                  CONDUIT     0.028     0  07:41      0.59    0.01    0.19
  C11                  CONDUIT     0.168     0  05:07      1.68    0.01    0.10
  C20                  CONDUIT     0.592     0  03:01      2.67    0.02    0.12
  C22                  CONDUIT     0.189     0  03:01      1.57    0.09    0.29
  C12                  CONDUIT     0.075     0  04:26      1.09    0.01    0.10
  C17                  CONDUIT     0.761     0  03:01      2.88    0.04    0.14
  C10                  CONDUIT     0.564     0  03:02      1.66    0.06    0.58
  C13                  CONDUIT     0.797     0  03:03      1.45    0.05    0.57
  C18                  CONDUIT     0.405     0  03:01      1.72    0.02    0.54
  C23                  CONDUIT     0.833     0  03:02      1.24    0.09    0.60
  C4                   CONDUIT     0.287     0  03:01      1.98    0.07    0.59
  C7                   CONDUIT     0.171     0  03:01      1.43    0.04    0.57
  C14                  CONDUIT     0.271     0  03:06      2.08    0.02    0.09
  C5                   CONDUIT     0.073     0  02:58      1.42    1.25    1.00
  C8                   CONDUIT     0.115     0  03:01      1.64    1.45    0.83
  C15                  CONDUIT     0.466     0  03:01      3.33    1.48    0.81
  C21                  CONDUIT     0.199     0  03:01      1.81    1.14    0.68
  V4                   ORIFICE     0.025     0  05:06                      0.35
  V5                   ORIFICE     0.037     0  04:08                      1.00
  V1                   ORIFICE     0.271     0  03:04                      1.00
  V6                   ORIFICE     0.075     0  03:09                      0.43
  V3                   ORIFICE     0.107     0  06:00                      0.65
  V2                   ORIFICE     0.029     0  07:30                      0.24
  
  
  ***************************
  Flow Classification Summary
  ***************************
  
  -------------------------------------------------------------------------------------
                      Adjusted    ---------- Fraction of Time in Flow Class ---------- 
                       /Actual         Up    Down  Sub   Sup   Up    Down  Norm  Inlet 
  Conduit               Length    Dry  Dry   Dry   Crit  Crit  Crit  Crit  Ltd   Ctrl  
  -------------------------------------------------------------------------------------
  C1                      1.00   0.00  0.00  0.00  0.00  1.00  0.00  0.00  0.94  0.00
  C6                      1.00   0.00  0.00  0.00  0.06  0.94  0.00  0.00  0.00  0.00
  C2                      1.00   0.00  0.00  0.00  0.65  0.35  0.00  0.00  0.95  0.00
  C9                      1.00   0.00  0.00  0.00  1.00  0.00  0.00  0.00  1.00  0.00
  C16                     1.00   0.00  0.00  0.00  0.57  0.43  0.00  0.00  0.43  0.00
  C3                      1.00   0.00  0.00  0.00  0.05  0.95  0.00  0.00  0.33  0.00
  C19                     1.00   0.00  0.00  0.00  1.00  0.00  0.00  0.00  1.00  0.00
  C11                     1.00   0.00  0.00  0.00  0.36  0.63  0.00  0.00  1.00  0.00
  C20                     1.00   0.00  0.00  0.00  0.53  0.47  0.00  0.00  0.98  0.00
  C22                     1.00   0.00  0.00  0.00  0.76  0.24  0.00  0.00  1.00  0.00
  C12                     1.00   0.00  0.00  0.00  0.50  0.50  0.00  0.00  1.00  0.00
  C17                     1.00   0.00  0.00  0.00  0.38  0.62  0.00  0.00  0.97  0.00
  C10                     1.00   0.00  0.00  0.00  0.96  0.04  0.00  0.00  0.97  0.00
  C13                     1.00   0.00  0.00  0.00  0.88  0.12  0.00  0.00  0.91  0.00
  C18                     1.00   0.00  0.00  0.00  0.94  0.06  0.00  0.00  0.97  0.00
  C23                     1.00   0.00  0.00  0.00  0.87  0.13  0.00  0.00  0.94  0.00
  C4                      1.00   0.00  0.00  0.00  0.96  0.04  0.00  0.00  0.98  0.00
  C7                      1.00   0.00  0.00  0.00  0.94  0.06  0.00  0.00  0.97  0.00
  C14                     1.00   0.00  0.00  0.00  0.00  0.99  0.00  0.00  0.22  0.00
  C5                      1.00   0.00  0.00  0.00  0.89  0.11  0.00  0.00  0.94  0.00
  C8                      1.00   0.00  0.00  0.00  0.07  0.93  0.00  0.00  0.00  0.00
  C15                     1.00   0.00  0.00  0.00  0.00  1.00  0.00  0.00  0.00  0.00
  C21                     1.00   0.00  0.00  0.00  0.00  1.00  0.00  0.00  0.00  0.00
  
  
  *************************
  Conduit Surcharge Summary
  *************************
  
  ----------------------------------------------------------------------------
                                                           Hours        Hours 
                         --------- Hours Full --------   Above Full   Capacity
  Conduit                Both Ends  Upstream  Dnstream   Normal Flow   Limited
  ----------------------------------------------------------------------------
  C6                          0.01      0.23      0.01      0.13         0.01
  C10                         0.01      0.01      5.53      0.01         0.01
  C13                         0.01      0.01      4.91      0.01         0.01
  C18                         0.01      0.01      4.97      0.01         0.01
  C23                         0.01      0.01      5.59      0.01         0.01
  C4                          0.01      0.01      5.77      0.01         0.01
  C7                          0.01      0.01      5.47      0.01         0.01
  C5                          0.26      0.26      0.36      0.31         0.23
  C8                          0.01      0.29      0.01      0.31         0.01
  C15                         0.01      0.25      0.01      0.32         0.01
  C21                         0.01      0.07      0.01      0.07         0.01
  

  Analysis begun on:  Fri Sep  3 19:36:24 2021
  Analysis ended on:  Fri Sep  3 19:36:24 2021
  Total elapsed time: < 1 sec