
  EPA STORM WATER MANAGEMENT MODEL - VERSION 5.1 (Build 5.3.0.dev0)
  --------------------------------------------------------------

  WARNING 09: time series interval greater than recording interval for Rain Gage RG1
  WARNING 09: time series interval greater than recording interval for Rain Gage RG2
  WARNING 09: time series interval greater than recording interval for Rain Gage RG3
  WARNING 09: time series interval greater than recording interval for Rain Gage RG4
  
  *********************************************************
  NOTE: The summary statistics displayed in this report are
  based on results found at every computational time step,  
  not just on results from each reporting time step.
  *********************************************************
  
  ****************
  Analysis Options
  ****************
  Flow Units ............... CMS
  Process Models:
    Rainfall/Runoff ........ YES
    RDII ................... NO
    Snowmelt ............... NO
    Groundwater ............ NO
    Flow Routing ........... YES
    Ponding Allowed ........ YES
    Water Quality .......... NO
  Infiltration Method ...... HORTON
  Flow Routing Method ...... DYNWAVE
  Surcharge Method ......... EXTRAN
  Starting Date ............ 08/28/2015 00:00:00
  Ending Date .............. 08/28/2015 23:40:00
  Antecedent Dry Days ...... 0.0
  Report Time Step ......... 00:01:00
  Wet Time Step ............ 00:01:00
  Dry Time Step ............ 00:01:00
  Routing Time Step ........ 5.00 sec
  Variable Time Step ....... YES
  Maximum Trials ........... 8
  Number of Threads ........ 1
  Head Tolerance ........... 0.001500 m
  
  
  **************************        Volume         Depth
  Runoff Quantity Continuity     hectare-m            mm
  **************************     ---------       -------
  Total Precipitation ......         3.452        19.158
  Evaporation Loss .........         0.000         0.000
  Infiltration Loss ........         0.000         0.000
  Surface Runoff ...........         3.443        19.109
  Final Storage ............         0.014         0.079
  Continuity Error (%) .....        -0.153
  
  
  **************************        Volume        Volume
  Flow Routing Continuity        hectare-m      10^6 ltr
  **************************     ---------     ---------
  Dry Weather Inflow .......         0.758         7.576
  Wet Weather Inflow .......         3.443        34.435
  Groundwater Inflow .......         0.000         0.000
  RDII Inflow ..............         0.000         0.000
  External Inflow ..........         0.000         0.000
  External Outflow .........         1.700        17.004
  Flooding Loss ............         2.264        22.639
  Evaporation Loss .........         0.000         0.000
  Exfiltration Loss ........         0.000         0.000
  Initial Stored Volume ....         0.000         0.000
  Final Stored Volume ......         0.225         2.253
  Continuity Error (%) .....         0.270
  
  
  *************************
  Highest Continuity Errors
  *************************
  Node T5 (3.67%)
  Node T3 (2.75%)
  Node T1 (1.44%)
  
  
  ***************************
  Time-Step Critical Elements
  ***************************
  None
  
  
  ********************************
  Highest Flow Instability Indexes
  ********************************
  Link C5 (1)
  
  
  *************************
  Routing Time Step Summary
  *************************
  Minimum Time Step           :     4.50 sec
  Average Time Step           :     5.00 sec
  Maximum Time Step           :     5.00 sec
  Percent in Steady State     :     0.00
  Average Iterations per Step :     2.29
  Percent Not Converging      :     0.78
  
  
  ***************************
  Subcatchment Runoff Summary
  ***************************
  
  ------------------------------------------------------------------------------------------------------------------------------
                            Total      Total      Total      Total     Imperv       Perv      Total       Total     Peak  Runoff
                           Precip      Runon       Evap      Infil     Runoff     Runoff     Runoff      Runoff   Runoff   Coeff
  Subcatchment                 mm         mm         mm         mm         mm         mm         mm    10^6 ltr      CMS
  ------------------------------------------------------------------------------------------------------------------------------
  SC01                      18.54       0.00       0.00       0.00      18.50       0.00      18.50        6.10     1.69   0.998
  SC02                      21.09       0.00       0.00       0.00      21.05       0.00      21.05        4.79     1.29   0.998
  SC03                      21.92       0.00       0.00       0.00      21.94       0.00      21.94        3.95     1.42   1.001
  SC04                      21.09       0.00       0.00       0.00      20.99       0.00      20.99        1.45     0.28   0.995
  SC05                      18.54       0.00       0.00       0.00      18.49       0.00      18.49        2.88     0.77   0.997
  SC06                      15.20       0.00       0.00       0.00      15.11       0.00      15.11        4.92     0.56   0.994
  SC07                      21.09       0.00       0.00       0.00      21.00       0.00      21.00        1.00     0.19   0.996
  SC08                      21.92       0.00       0.00       0.00      21.88       0.00      21.88        6.13     1.53   0.998
  SC09                      15.20       0.00       0.00       0.00      15.14       0.00      15.14        1.04     0.14   0.996
  SC010                     18.54       0.00       0.00       0.00      18.48       0.00      18.48        2.17     0.52   0.997
  
  
  ******************
  Node Depth Summary
  ******************
  
  ---------------------------------------------------------------------------------
                                 Average  Maximum  Maximum  Time of Max    Reported
                                   Depth    Depth      HGL   Occurrence   Max Depth
  Node                 Type       Meters   Meters   Meters  days hr:min      Meters
  ---------------------------------------------------------------------------------
  J1                   JUNCTION     0.06     0.28    34.28     0  07:01        0.28
  J3                   JUNCTION     0.12     0.17    18.17     0  09:37        0.17
  CSO7                 JUNCTION     0.17     1.20    35.20     0  06:51        1.20
  J5                   JUNCTION     0.05     0.19    32.19     0  08:57        0.19
  CSO9                 JUNCTION     0.13     2.00    42.00     0  06:56        2.00
  J8                   JUNCTION     0.08     0.27    36.27     0  08:57        0.27
  CSO8                 JUNCTION     0.20     2.00    34.00     0  06:45        2.00
  J10                  JUNCTION     0.07     0.38    29.38     0  08:52        0.38
  J13                  JUNCTION     0.05     0.29    29.29     0  08:56        0.28
  J15                  JUNCTION     0.18     0.45    15.45     0  07:03        0.45
  J16                  JUNCTION     0.05     0.30    30.30     0  07:01        0.30
  CSO10                JUNCTION     0.11     1.00    31.00     0  06:51        1.00
  J12                  JUNCTION     0.40     1.05    27.05     0  08:32        1.05
  J4                   JUNCTION     0.14     1.54    34.54     0  06:55        0.77
  J6                   JUNCTION     0.07     0.12    25.12     0  09:12        0.12
  J2                   JUNCTION     0.06     0.08    25.08     0  08:07        0.08
  J19                  JUNCTION     0.14     0.17     8.17     0  07:04        0.17
  J9                   JUNCTION     0.09     0.16    29.16     0  08:55        0.16
  J14                  JUNCTION     0.14     0.19    20.19     0  13:01        0.19
  J17                  JUNCTION     0.08     0.15    20.15     0  09:32        0.15
  J7                   JUNCTION     0.06     0.23    39.23     0  08:57        0.23
  J11                  JUNCTION     0.07     0.30    31.30     0  09:07        0.30
  J18                  JUNCTION     0.04     0.16    29.16     0  07:19        0.16
  Out_to_WWTP          OUTFALL      0.14     0.17     6.17     0  18:40        0.17
  T5                   STORAGE      2.72     5.00    32.00     0  07:16        5.00
  T4                   STORAGE      1.32     5.00    32.00     0  08:41        5.00
  T6                   STORAGE      1.45     5.00    36.00     0  07:40        5.00
  T3                   STORAGE      2.92     5.00    27.00     0  08:14        5.00
  T2                   STORAGE      1.33     5.00    26.00     0  08:33        5.00
  T1                   STORAGE      3.43     5.00    15.00     0  07:02        5.00
  
  
  *******************
  Node Inflow Summary
  *******************
  
  -------------------------------------------------------------------------------------------------
                                  Maximum  Maximum                  Lateral       Total        Flow
                                  Lateral    Total  Time of Max      Inflow      Inflow     Balance
                                   Inflow   Inflow   Occurrence      Volume      Volume       Error
  Node                 Type           CMS      CMS  days hr:min    10^6 ltr    10^6 ltr     Percent
  -------------------------------------------------------------------------------------------------
  J1                   JUNCTION     0.784    0.784     0  07:01        3.98        3.98      -0.034
  J3                   JUNCTION     0.000    0.309     0  08:48           0        15.5       0.190
  CSO7                 JUNCTION     0.198    0.198     0  08:56        1.56        1.56       0.002
  J5                   JUNCTION     0.279    0.352     0  08:56         1.7        3.05      -0.015
  CSO9                 JUNCTION     0.144    0.144     0  08:51        1.43        1.43      -0.014
  J8                   JUNCTION     0.588    0.701     0  08:56        6.75        8.17      -0.017
  CSO8                 JUNCTION     1.541    1.541     0  08:51        6.58        6.58      -0.021
  J10                  JUNCTION     1.426    1.913     0  08:51         4.7        10.2      -0.074
  J13                  JUNCTION     1.302    1.302     0  08:56         5.7         5.7      -0.129
  J15                  JUNCTION     0.000    2.013     0  07:01           0        29.3       0.209
  J16                  JUNCTION     1.706    1.706     0  07:01        7.18        7.18      -0.066
  CSO10                JUNCTION     0.521    0.521     0  07:01        2.44        2.44      -0.029
  J12                  JUNCTION     0.000    1.742     0  08:52           0        16.1       0.009
  J4                   JUNCTION     0.000    0.082     0  06:51           0        1.35      -0.002
  J6                   JUNCTION     0.000    0.080     0  08:41           0        2.58       0.011
  J2                   JUNCTION     0.000    0.039     0  07:16           0        2.19       0.167
  J19                  JUNCTION     0.000    0.271     0  07:02           0          17       0.057
  J9                   JUNCTION     0.000    0.175     0  07:40           0        5.95      -0.018
  J14                  JUNCTION     0.000    0.190     0  08:14           0        10.7       0.062
  J17                  JUNCTION     0.000    0.140     0  08:33           0        4.47       0.030
  J7                   JUNCTION     0.000    0.126     0  08:57           0        1.42       0.058
  J11                  JUNCTION     0.000    0.487     0  09:06           0        5.46       0.014
  J18                  JUNCTION     0.000    0.202     0  07:19           0        2.26      -0.042
  Out_to_WWTP          OUTFALL      0.000    0.271     0  07:04           0          17       0.000
  T5                   STORAGE      0.000    0.728     0  07:01           0        3.98       3.806
  T4                   STORAGE      0.000    0.327     0  08:57           0        3.05      -0.028
  T6                   STORAGE      0.000    0.673     0  08:57           0        8.17      -0.019
  T3                   STORAGE      0.000    1.614     0  08:55           0        16.1       2.825
  T2                   STORAGE      0.000    1.183     0  08:56           0        5.71       0.112
  T1                   STORAGE      0.000    1.762     0  07:03           0        29.3       1.458
  
  
  **********************
  Node Surcharge Summary
  **********************
  
  Surcharging occurs when water rises above the top of the highest conduit.
  ---------------------------------------------------------------------
                                               Max. Height   Min. Depth
                                   Hours       Above Crown    Below Rim
  Node                 Type      Surcharged         Meters       Meters
  ---------------------------------------------------------------------
  CSO7                 JUNCTION        2.42          0.945        0.000
  CSO9                 JUNCTION        1.26          1.682        0.000
  CSO8                 JUNCTION        2.03          1.547        0.000
  CSO10                JUNCTION        0.77          0.560        0.000
  J4                   JUNCTION        2.34          1.245        0.455
  
  
  *********************
  Node Flooding Summary
  *********************
  
  Flooding refers to all water that overflows a node, whether it ponds or not.
  --------------------------------------------------------------------------
                                                             Total   Maximum
                                 Maximum   Time of Max       Flood    Ponded
                        Hours       Rate    Occurrence      Volume     Depth
  Node                 Flooded       CMS   days hr:min    10^6 ltr    Meters
  --------------------------------------------------------------------------
  CSO7                    1.95     0.126      0  08:56       0.213     0.000
  CSO9                    0.16     0.025      0  08:46       0.004     0.000
  CSO8                    1.26     1.055      0  08:51       1.115     0.000
  CSO10                   0.48     0.319      0  07:01       0.184     0.000
  T5                      3.89     0.309      0  07:16       1.505     0.000
  T4                      1.27     0.248      0  08:57       0.470     0.000
  T6                      2.64     0.498      0  08:57       2.224     0.000
  T3                      3.64     1.424      0  08:55       4.198     0.000
  T2                      1.17     1.043      0  08:56       1.225     0.000
  T1                     11.23     1.491      0  07:03      11.503     0.000
  
  
  **********************
  Storage Volume Summary
  **********************
  
  --------------------------------------------------------------------------------------------------
                         Average     Avg  Evap Exfil       Maximum     Max    Time of Max    Maximum
                          Volume    Pcnt  Pcnt  Pcnt        Volume    Pcnt     Occurrence    Outflow
  Storage Unit           1000 m3    Full  Loss  Loss       1000 m3    Full    days hr:min        CMS
  --------------------------------------------------------------------------------------------------
  T5                       0.272      54     0     0         0.500     100       0  07:16      0.039
  T4                       0.132      26     0     0         0.500     100       0  08:41      0.080
  T6                       0.174      29     0     0         0.600     100       0  07:40      0.175
  T3                       1.517      58     0     0         2.600     100       0  08:14      0.190
  T2                       0.266      27     0     0         1.000     100       0  08:33      0.140
  T1                       0.480      69     0     0         0.700     100       0  07:02      0.271
  
  
  ***********************
  Outfall Loading Summary
  ***********************
  
  -----------------------------------------------------------
                         Flow       Avg       Max       Total
                         Freq      Flow      Flow      Volume
  Outfall Node           Pcnt       CMS       CMS    10^6 ltr
  -----------------------------------------------------------
  Out_to_WWTP           99.43     0.201     0.271      17.004
  -----------------------------------------------------------
  System                99.43     0.201     0.271      17.004
  
  
  ********************
  Link Flow Summary
  ********************
  
  -----------------------------------------------------------------------------
                                 Maximum  Time of Max   Maximum    Max/    Max/
                                  |Flow|   Occurrence   |Veloc|    Full    Full
  Link                 Type          CMS  days hr:min     m/sec    Flow   Depth
  -----------------------------------------------------------------------------
  C1                   CONDUIT     0.039     0  08:07      0.78    0.01    0.13
  C6                   CONDUIT     0.073     0  08:57      1.28    1.16    0.82
  C2                   CONDUIT     0.080     0  09:12      1.48    0.09    0.25
  C9                   CONDUIT     0.122     0  08:58      1.28    0.42    0.49
  C16                  CONDUIT     0.492     0  08:46      1.82    0.05    0.17
  C3                   CONDUIT     0.190     0  08:16      2.06    0.07    0.18
  C19                  CONDUIT     0.140     0  09:07      1.20    0.05    0.28
  C11                  CONDUIT     0.309     0  09:39      1.84    0.02    0.15
  C20                  CONDUIT     1.570     0  07:01      4.49    0.05    0.18
  C22                  CONDUIT     0.202     0  07:19      1.49    0.09    0.38
  C12                  CONDUIT     0.175     0  08:55      0.89    0.01    0.30
  C17                  CONDUIT     1.567     0  08:52      3.58    0.08    0.35
  C10                  CONDUIT     0.673     0  08:57      0.94    0.07    0.59
  C13                  CONDUIT     1.614     0  08:55      1.17    0.09    0.76
  C18                  CONDUIT     1.183     0  08:56      1.11    0.04    0.57
  C23                  CONDUIT     1.762     0  07:03      1.45    0.19    0.65
  C4                   CONDUIT     0.728     0  07:01      1.37    0.18    0.64
  C7                   CONDUIT     0.327     0  08:57      0.90    0.08    0.60
  C14                  CONDUIT     0.271     0  07:04      2.08    0.02    0.09
  C5                   CONDUIT     0.082     0  06:51      1.67    1.40    1.00
  C8                   CONDUIT     0.126     0  08:57      1.81    1.59    0.85
  C15                  CONDUIT     0.487     0  09:06      3.55    1.55    0.83
  C21                  CONDUIT     0.202     0  07:19      1.88    1.16    0.69
  V4                   ORIFICE     0.080     0  08:41                      1.00
  V5                   ORIFICE     0.039     0  07:16                      1.00
  V1                   ORIFICE     0.271     0  07:02                      1.00
  V6                   ORIFICE     0.175     0  07:40                      1.00
  V3                   ORIFICE     0.190     0  08:14                      1.00
  V2                   ORIFICE     0.140     0  08:33                      1.00
  
  
  ***************************
  Flow Classification Summary
  ***************************
  
  -------------------------------------------------------------------------------------
                      Adjusted    ---------- Fraction of Time in Flow Class ---------- 
                       /Actual         Up    Down  Sub   Sup   Up    Down  Norm  Inlet 
  Conduit               Length    Dry  Dry   Dry   Crit  Crit  Crit  Crit  Ltd   Ctrl  
  -------------------------------------------------------------------------------------
  C1                      1.00   0.00  0.00  0.00  0.90  0.10  0.00  0.00  0.97  0.00
  C6                      1.00   0.00  0.00  0.00  0.12  0.88  0.00  0.00  0.00  0.00
  C2                      1.00   0.00  0.00  0.00  0.44  0.56  0.00  0.00  0.97  0.00
  C9                      1.00   0.00  0.00  0.00  1.00  0.00  0.00  0.00  1.00  0.00
  C16                     1.00   0.00  0.15  0.00  0.59  0.26  0.00  0.00  0.51  0.00
  C3                      1.00   0.00  0.00  0.00  0.04  0.96  0.00  0.00  0.07  0.00
  C19                     1.00   0.00  0.00  0.00  0.90  0.10  0.00  0.00  1.00  0.00
  C11                     1.00   0.00  0.00  0.00  0.15  0.85  0.00  0.00  1.00  0.00
  C20                     1.00   0.00  0.00  0.00  0.74  0.26  0.00  0.00  0.99  0.00
  C22                     1.00   0.00  0.00  0.00  0.98  0.02  0.00  0.00  1.00  0.00
  C12                     1.00   0.00  0.00  0.00  0.65  0.35  0.00  0.00  0.90  0.00
  C17                     1.00   0.00  0.00  0.00  0.81  0.19  0.00  0.00  0.98  0.00
  C10                     1.00   0.00  0.00  0.00  0.74  0.26  0.00  0.00  0.98  0.00
  C13                     1.00   0.00  0.00  0.00  0.79  0.21  0.00  0.00  0.47  0.00
  C18                     1.00   0.00  0.00  0.00  0.66  0.34  0.00  0.00  0.97  0.00
  C23                     1.00   0.00  0.00  0.00  0.83  0.17  0.00  0.00  0.96  0.00
  C4                      1.00   0.00  0.00  0.00  0.84  0.16  0.00  0.00  0.98  0.00
  C7                      1.00   0.00  0.00  0.00  0.73  0.27  0.00  0.00  0.84  0.00
  C14                     1.00   0.00  0.00  0.00  0.00  1.00  0.00  0.00  0.16  0.00
  C5                      1.00   0.00  0.00  0.00  0.93  0.07  0.00  0.00  0.88  0.00
  C8                      1.00   0.00  0.00  0.00  0.32  0.68  0.00  0.00  0.01  0.00
  C15                     1.00   0.14  0.00  0.00  0.02  0.84  0.00  0.00  0.02  0.00
  C21                     1.00   0.00  0.00  0.00  0.01  0.99  0.00  0.00  0.00  0.00
  
  
  *************************
  Conduit Surcharge Summary
  *************************
  
  ----------------------------------------------------------------------------
                                                           Hours        Hours 
                         --------- Hours Full --------   Above Full   Capacity
  Conduit                Both Ends  Upstream  Dnstream   Normal Flow   Limited
  ----------------------------------------------------------------------------
  C6                          0.01      2.34      0.01      2.11         0.01
  C10                         0.01      0.01      7.64      0.01         0.01
  C13                         0.01      0.01     15.42      0.01         0.01
  C18                         0.01      0.01      6.69      0.01         0.01
  C23                         0.01      0.01     17.19      0.01         0.01
  C4                          0.01      0.01     17.17      0.01         0.01
  C7                          0.01      0.01      8.62      0.01         0.01
  C5                          2.36      2.42      2.59      2.40         2.30
  C8                          0.01      1.26      0.01      1.25         0.01
  C15                         0.01      2.03      0.01      2.16         0.01
  C21                         0.01      0.77      0.01      0.70         0.01
  

  Analysis begun on:  Mon Sep 20 17:19:11 2021
  Analysis ended on:  Mon Sep 20 17:19:12 2021
  Total elapsed time: 00:00:01