
  EPA STORM WATER MANAGEMENT MODEL - VERSION 5.1 (Build 5.3.0.dev0)
  --------------------------------------------------------------

  WARNING 09: time series interval greater than recording interval for Rain Gage RG1
  WARNING 09: time series interval greater than recording interval for Rain Gage RG2
  WARNING 09: time series interval greater than recording interval for Rain Gage RG3
  WARNING 09: time series interval greater than recording interval for Rain Gage RG4
  
  *********************************************************
  NOTE: The summary statistics displayed in this report are
  based on results found at every computational time step,  
  not just on results from each reporting time step.
  *********************************************************
  
  ****************
  Analysis Options
  ****************
  Flow Units ............... CMS
  Process Models:
    Rainfall/Runoff ........ YES
    RDII ................... NO
    Snowmelt ............... NO
    Groundwater ............ NO
    Flow Routing ........... YES
    Ponding Allowed ........ YES
    Water Quality .......... NO
  Infiltration Method ...... HORTON
  Flow Routing Method ...... DYNWAVE
  Surcharge Method ......... EXTRAN
  Starting Date ............ 08/28/2015 00:00:00
  Ending Date .............. 08/28/2015 23:40:00
  Antecedent Dry Days ...... 0.0
  Report Time Step ......... 00:01:00
  Wet Time Step ............ 00:01:00
  Dry Time Step ............ 00:01:00
  Routing Time Step ........ 5.00 sec
  Variable Time Step ....... YES
  Maximum Trials ........... 8
  Number of Threads ........ 1
  Head Tolerance ........... 0.001500 m
  
  
  **************************        Volume         Depth
  Runoff Quantity Continuity     hectare-m            mm
  **************************     ---------       -------
  Total Precipitation ......         2.610        14.481
  Evaporation Loss .........         0.000         0.000
  Infiltration Loss ........         0.000         0.000
  Surface Runoff ...........         2.592        14.385
  Final Storage ............         0.024         0.133
  Continuity Error (%) .....        -0.253
  
  
  **************************        Volume        Volume
  Flow Routing Continuity        hectare-m      10^6 ltr
  **************************     ---------     ---------
  Dry Weather Inflow .......         0.758         7.576
  Wet Weather Inflow .......         2.592        25.922
  Groundwater Inflow .......         0.000         0.000
  RDII Inflow ..............         0.000         0.000
  External Inflow ..........         0.000         0.000
  External Outflow .........         1.482        14.820
  Flooding Loss ............         1.255        12.553
  Evaporation Loss .........         0.000         0.000
  Exfiltration Loss ........         0.000         0.000
  Initial Stored Volume ....         0.000         0.000
  Final Stored Volume ......         0.480         4.802
  Continuity Error (%) .....         3.948
  
  
  *************************
  Highest Continuity Errors
  *************************
  Node T3 (10.02%)
  Node T5 (7.05%)
  Node T1 (3.17%)
  Node J12 (1.77%)
  
  
  ***************************
  Time-Step Critical Elements
  ***************************
  None
  
  
  ********************************
  Highest Flow Instability Indexes
  ********************************
  All links are stable.
  
  
  *************************
  Routing Time Step Summary
  *************************
  Minimum Time Step           :     4.50 sec
  Average Time Step           :     5.00 sec
  Maximum Time Step           :     5.00 sec
  Percent in Steady State     :     0.00
  Average Iterations per Step :     2.10
  Percent Not Converging      :     0.37
  
  
  ***************************
  Subcatchment Runoff Summary
  ***************************
  
  ------------------------------------------------------------------------------------------------------------------------------
                            Total      Total      Total      Total     Imperv       Perv      Total       Total     Peak  Runoff
                           Precip      Runon       Evap      Infil     Runoff     Runoff     Runoff      Runoff   Runoff   Coeff
  Subcatchment                 mm         mm         mm         mm         mm         mm         mm    10^6 ltr      CMS
  ------------------------------------------------------------------------------------------------------------------------------
  SC01                      20.08       0.00       0.00       0.00      20.04       0.00      20.04        6.61     3.26   0.998
  SC02                      12.69       0.00       0.00       0.00      12.63       0.00      12.63        2.87     1.76   0.995
  SC03                      11.71       0.00       0.00       0.00      11.68       0.00      11.68        2.10     1.02   0.998
  SC04                      12.69       0.00       0.00       0.00      12.53       0.00      12.53        0.86     0.29   0.987
  SC05                      20.08       0.00       0.00       0.00      20.02       0.00      20.02        3.12     1.44   0.997
  SC06                      10.71       0.00       0.00       0.00      10.51       0.00      10.51        3.42     0.64   0.981
  SC07                      12.69       0.00       0.00       0.00      12.53       0.00      12.53        0.60     0.20   0.987
  SC08                      11.71       0.00       0.00       0.00      11.62       0.00      11.62        3.25     1.00   0.992
  SC09                      10.71       0.00       0.00       0.00      10.59       0.00      10.59        0.73     0.20   0.989
  SC010                     20.08       0.00       0.00       0.00      19.97       0.00      19.97        2.35     0.91   0.995
  
  
  ******************
  Node Depth Summary
  ******************
  
  ---------------------------------------------------------------------------------
                                 Average  Maximum  Maximum  Time of Max    Reported
                                   Depth    Depth      HGL   Occurrence   Max Depth
  Node                 Type       Meters   Meters   Meters  days hr:min      Meters
  ---------------------------------------------------------------------------------
  J1                   JUNCTION     0.06     0.40    34.40     0  15:51        0.39
  J3                   JUNCTION     0.11     0.17    18.17     0  17:14        0.17
  CSO7                 JUNCTION     0.10     1.20    35.20     0  15:51        1.20
  J5                   JUNCTION     0.05     0.19    32.19     0  15:57        0.19
  CSO9                 JUNCTION     0.11     2.00    42.00     0  15:45        2.00
  J8                   JUNCTION     0.08     0.28    36.28     0  15:52        0.28
  CSO8                 JUNCTION     0.12     2.00    34.00     0  15:50        2.00
  J10                  JUNCTION     0.07     0.35    29.35     0  15:57        0.34
  J13                  JUNCTION     0.05     0.33    29.33     0  15:56        0.33
  J15                  JUNCTION     0.17     0.58    15.58     0  15:58        0.58
  J16                  JUNCTION     0.06     0.43    30.43     0  15:51        0.41
  CSO10                JUNCTION     0.12     1.00    31.00     0  10:35        1.00
  J12                  JUNCTION     0.33     1.01    27.01     0  18:47        1.01
  J4                   JUNCTION     0.10     1.33    34.33     0  15:56        0.77
  J6                   JUNCTION     0.06     0.11    25.11     0  17:01        0.11
  J2                   JUNCTION     0.06     0.08    25.08     0  12:35        0.08
  J19                  JUNCTION     0.13     0.17     8.17     0  10:55        0.17
  J9                   JUNCTION     0.10     0.16    29.16     0  16:56        0.16
  J14                  JUNCTION     0.12     0.19    20.19     0  20:05        0.19
  J17                  JUNCTION     0.08     0.14    20.14     0  16:47        0.14
  J7                   JUNCTION     0.06     0.23    39.23     0  15:59        0.23
  J11                  JUNCTION     0.07     0.30    31.30     0  16:15        0.30
  J18                  JUNCTION     0.05     0.16    29.16     0  16:14        0.16
  Out_to_WWTP          OUTFALL      0.13     0.17     6.17     0  10:54        0.17
  T5                   STORAGE      2.55     5.00    32.00     0  11:49        5.00
  T4                   STORAGE      0.82     3.67    30.67     0  17:00        3.67
  T6                   STORAGE      1.31     5.00    36.00     0  16:20        5.00
  T3                   STORAGE      2.07     5.00    27.00     0  17:28        5.00
  T2                   STORAGE      0.84     3.92    24.92     0  16:46        3.92
  T1                   STORAGE      2.89     5.00    15.00     0  10:54        5.00
  
  
  *******************
  Node Inflow Summary
  *******************
  
  -------------------------------------------------------------------------------------------------
                                  Maximum  Maximum                  Lateral       Total        Flow
                                  Lateral    Total  Time of Max      Inflow      Inflow     Balance
                                   Inflow   Inflow   Occurrence      Volume      Volume       Error
  Node                 Type           CMS      CMS  days hr:min    10^6 ltr    10^6 ltr     Percent
  -------------------------------------------------------------------------------------------------
  J1                   JUNCTION     1.456    1.456     0  15:51        4.22        4.22      -0.010
  J3                   JUNCTION     0.000    0.296     0  17:12           0        12.5       0.341
  CSO7                 JUNCTION     0.209    0.209     0  15:56        1.16        1.16       0.007
  J5                   JUNCTION     0.295    0.359     0  15:56        1.11        2.18      -0.019
  CSO9                 JUNCTION     0.207    0.207     0  15:46        1.11        1.11       0.005
  J8                   JUNCTION     0.667    0.785     0  15:51        5.25        6.33      -0.021
  CSO8                 JUNCTION     1.011    1.011     0  15:56         3.7         3.7      -0.017
  J10                  JUNCTION     1.035    1.488     0  15:56        2.85        6.26      -0.154
  J13                  JUNCTION     1.769    1.769     0  15:56        3.78        3.78      -0.263
  J15                  JUNCTION     0.000    3.572     0  15:51           0          26       0.381
  J16                  JUNCTION     3.278    3.278     0  15:51        7.69        7.69      -0.100
  CSO10                JUNCTION     0.916    0.916     0  15:51        2.62        2.62      -0.055
  J12                  JUNCTION     0.000    1.426     0  15:57           0        12.4       1.803
  J4                   JUNCTION     0.000    0.085     0  15:54           0        1.06       0.057
  J6                   JUNCTION     0.000    0.068     0  17:00           0        2.16       0.093
  J2                   JUNCTION     0.000    0.039     0  11:49           0        2.02       0.233
  J19                  JUNCTION     0.000    0.271     0  10:54           0        14.8       0.085
  J9                   JUNCTION     0.000    0.175     0  16:20           0           6       0.104
  J14                  JUNCTION     0.000    0.190     0  17:28           0        8.33       0.118
  J17                  JUNCTION     0.000    0.124     0  16:46           0        3.72       0.170
  J7                   JUNCTION     0.000    0.127     0  15:59           0        1.08       0.099
  J11                  JUNCTION     0.000    0.486     0  16:15           0        3.41       0.086
  J18                  JUNCTION     0.000    0.202     0  16:14           0        2.11      -0.012
  Out_to_WWTP          OUTFALL      0.000    0.271     0  10:56           0        14.8       0.000
  T5                   STORAGE      0.000    1.321     0  15:51           0        4.22       7.581
  T4                   STORAGE      0.000    0.335     0  15:57           0        2.18       0.202
  T6                   STORAGE      0.000    0.749     0  15:52           0        6.33       0.518
  T3                   STORAGE      0.000    1.260     0  15:59           0        12.1      11.136
  T2                   STORAGE      0.000    1.618     0  15:56           0        3.79       0.795
  T1                   STORAGE      0.000    2.647     0  15:58           0        25.9       3.272
  
  
  **********************
  Node Surcharge Summary
  **********************
  
  Surcharging occurs when water rises above the top of the highest conduit.
  ---------------------------------------------------------------------
                                               Max. Height   Min. Depth
                                   Hours       Above Crown    Below Rim
  Node                 Type      Surcharged         Meters       Meters
  ---------------------------------------------------------------------
  CSO7                 JUNCTION        0.79          0.945        0.000
  CSO9                 JUNCTION        0.61          1.682        0.000
  CSO8                 JUNCTION        0.62          1.547        0.000
  CSO10                JUNCTION        0.97          0.560        0.000
  J4                   JUNCTION        0.74          1.032        0.668
  
  
  *********************
  Node Flooding Summary
  *********************
  
  Flooding refers to all water that overflows a node, whether it ponds or not.
  --------------------------------------------------------------------------
                                                             Total   Maximum
                                 Maximum   Time of Max       Flood    Ponded
                        Hours       Rate    Occurrence      Volume     Depth
  Node                 Flooded       CMS   days hr:min    10^6 ltr    Meters
  --------------------------------------------------------------------------
  CSO7                    0.63     0.135      0  15:56       0.097     0.000
  CSO9                    0.29     0.085      0  15:46       0.032     0.000
  CSO8                    0.41     0.527      0  15:56       0.294     0.000
  CSO10                   0.78     0.713      0  15:51       0.514     0.000
  T5                      2.92     1.281      0  15:51       1.603     0.000
  T6                      0.59     0.287      0  16:20       0.264     0.000
  T3                      0.90     0.225      0  17:28       0.233     0.000
  T1                     12.47     2.376      0  15:58       9.518     0.000
  
  
  **********************
  Storage Volume Summary
  **********************
  
  --------------------------------------------------------------------------------------------------
                         Average     Avg  Evap Exfil       Maximum     Max    Time of Max    Maximum
                          Volume    Pcnt  Pcnt  Pcnt        Volume    Pcnt     Occurrence    Outflow
  Storage Unit           1000 m3    Full  Loss  Loss       1000 m3    Full    days hr:min        CMS
  --------------------------------------------------------------------------------------------------
  T5                       0.255      51     0     0         0.500     100       0  11:49      0.039
  T4                       0.082      16     0     0         0.367      73       0  17:00      0.068
  T6                       0.157      26     0     0         0.600     100       0  16:20      0.175
  T3                       1.078      41     0     0         2.600     100       0  17:28      0.346
  T2                       0.168      17     0     0         0.783      78       0  16:46      0.124
  T1                       0.404      58     0     0         0.700     100       0  10:54      0.271
  
  
  ***********************
  Outfall Loading Summary
  ***********************
  
  -----------------------------------------------------------
                         Flow       Avg       Max       Total
                         Freq      Flow      Flow      Volume
  Outfall Node           Pcnt       CMS       CMS    10^6 ltr
  -----------------------------------------------------------
  Out_to_WWTP           99.44     0.175     0.271      14.820
  -----------------------------------------------------------
  System                99.44     0.175     0.271      14.820
  
  
  ********************
  Link Flow Summary
  ********************
  
  -----------------------------------------------------------------------------
                                 Maximum  Time of Max   Maximum    Max/    Max/
                                  |Flow|   Occurrence   |Veloc|    Full    Full
  Link                 Type          CMS  days hr:min     m/sec    Flow   Depth
  -----------------------------------------------------------------------------
  C1                   CONDUIT     0.039     0  12:35      0.96    0.01    0.12
  C6                   CONDUIT     0.073     0  15:57      1.29    1.16    0.82
  C2                   CONDUIT     0.068     0  17:01      1.35    0.08    0.23
  C9                   CONDUIT     0.127     0  15:59      1.30    0.43    0.51
  C16                  CONDUIT     0.488     0  16:12      1.79    0.05    0.16
  C3                   CONDUIT     0.190     0  17:38      2.09    0.07    0.18
  C19                  CONDUIT     0.124     0  16:48      1.18    0.04    0.34
  C11                  CONDUIT     0.296     0  17:14      1.86    0.01    0.18
  C20                  CONDUIT     3.111     0  15:51      6.24    0.10    0.24
  C22                  CONDUIT     0.202     0  16:14      1.48    0.09    0.46
  C12                  CONDUIT     0.175     0  16:56      1.16    0.01    0.29
  C17                  CONDUIT     1.302     0  15:57      3.59    0.06    0.28
  C10                  CONDUIT     0.749     0  15:52      0.96    0.08    0.59
  C13                  CONDUIT     1.260     0  15:59      1.22    0.07    0.75
  C18                  CONDUIT     1.618     0  15:56      1.41    0.06    0.57
  C23                  CONDUIT     2.647     0  15:58      2.03    0.29    0.69
  C4                   CONDUIT     1.321     0  15:51      2.26    0.32    0.70
  C7                   CONDUIT     0.335     0  15:57      1.11    0.08    0.60
  C14                  CONDUIT     0.271     0  10:56      2.08    0.02    0.09
  C5                   CONDUIT     0.085     0  15:54      1.79    1.46    1.00
  C8                   CONDUIT     0.127     0  15:59      1.85    1.60    0.86
  C15                  CONDUIT     0.486     0  16:15      3.77    1.55    0.83
  C21                  CONDUIT     0.202     0  16:14      1.90    1.16    0.69
  V4                   ORIFICE     0.068     0  17:00                      1.00
  V5                   ORIFICE     0.039     0  11:49                      1.00
  V1                   ORIFICE     0.271     0  10:54                      1.00
  V6                   ORIFICE     0.175     0  16:20                      1.00
  V3                   ORIFICE     0.190     0  17:28                      1.00
  V2                   ORIFICE     0.124     0  16:46                      1.00
  
  
  ***************************
  Flow Classification Summary
  ***************************
  
  -------------------------------------------------------------------------------------
                      Adjusted    ---------- Fraction of Time in Flow Class ---------- 
                       /Actual         Up    Down  Sub   Sup   Up    Down  Norm  Inlet 
  Conduit               Length    Dry  Dry   Dry   Crit  Crit  Crit  Crit  Ltd   Ctrl  
  -------------------------------------------------------------------------------------
  C1                      1.00   0.00  0.00  0.00  0.89  0.11  0.00  0.00  0.98  0.00
  C6                      1.00   0.00  0.00  0.00  0.05  0.95  0.00  0.00  0.00  0.00
  C2                      1.00   0.00  0.00  0.00  0.21  0.78  0.00  0.00  0.97  0.00
  C9                      1.00   0.00  0.00  0.00  1.00  0.00  0.00  0.00  1.00  0.00
  C16                     1.00   0.00  0.00  0.00  0.65  0.35  0.00  0.00  0.61  0.00
  C3                      1.00   0.00  0.00  0.00  0.02  0.97  0.00  0.00  0.04  0.00
  C19                     1.00   0.00  0.00  0.00  0.90  0.10  0.00  0.00  1.00  0.00
  C11                     1.00   0.00  0.00  0.00  0.14  0.86  0.00  0.00  1.00  0.00
  C20                     1.00   0.00  0.00  0.00  0.81  0.19  0.00  0.00  0.99  0.00
  C22                     1.00   0.00  0.00  0.00  0.95  0.05  0.00  0.00  1.00  0.00
  C12                     1.00   0.00  0.00  0.00  0.57  0.43  0.00  0.00  0.99  0.00
  C17                     1.00   0.00  0.00  0.00  0.52  0.48  0.00  0.00  0.98  0.00
  C10                     1.00   0.00  0.00  0.00  0.77  0.23  0.00  0.00  0.98  0.00
  C13                     1.00   0.00  0.00  0.00  0.77  0.23  0.00  0.00  0.64  0.00
  C18                     1.00   0.00  0.00  0.00  0.60  0.40  0.00  0.00  0.99  0.00
  C23                     1.00   0.00  0.00  0.00  0.93  0.07  0.00  0.00  0.97  0.00
  C4                      1.00   0.00  0.00  0.00  0.96  0.04  0.00  0.00  0.98  0.00
  C7                      1.00   0.00  0.00  0.00  0.76  0.24  0.00  0.00  0.97  0.00
  C14                     1.00   0.00  0.00  0.00  0.00  1.00  0.00  0.00  0.29  0.00
  C5                      1.00   0.00  0.00  0.00  0.93  0.07  0.00  0.00  0.95  0.00
  C8                      1.00   0.00  0.00  0.00  0.24  0.76  0.00  0.00  0.00  0.00
  C15                     1.00   0.00  0.00  0.00  0.00  1.00  0.00  0.00  0.00  0.00
  C21                     1.00   0.00  0.00  0.00  0.01  0.99  0.00  0.00  0.00  0.00
  
  
  *************************
  Conduit Surcharge Summary
  *************************
  
  ----------------------------------------------------------------------------
                                                           Hours        Hours 
                         --------- Hours Full --------   Above Full   Capacity
  Conduit                Both Ends  Upstream  Dnstream   Normal Flow   Limited
  ----------------------------------------------------------------------------
  C6                          0.01      0.74      0.01      0.63         0.01
  C10                         0.01      0.01      7.94      0.01         0.01
  C13                         0.01      0.01     11.24      0.01         0.01
  C18                         0.01      0.01      3.46      0.01         0.01
  C23                         0.01      0.01     13.12      0.01         0.01
  C4                          0.01      0.01     13.22      0.01         0.01
  C7                          0.01      0.01      7.44      0.01         0.01
  C5                          0.73      0.79      0.82      0.77         0.70
  C8                          0.01      0.61      0.01      0.59         0.01
  C15                         0.01      0.62      0.01      0.64         0.01
  C21                         0.01      0.97      0.01      0.90         0.01
  

  Analysis begun on:  Mon Sep 20 17:39:17 2021
  Analysis ended on:  Mon Sep 20 17:39:18 2021
  Total elapsed time: 00:00:01