
  EPA STORM WATER MANAGEMENT MODEL - VERSION 5.1 (Build 5.3.0.dev0)
  --------------------------------------------------------------

  WARNING 09: time series interval greater than recording interval for Rain Gage RG1
  WARNING 09: time series interval greater than recording interval for Rain Gage RG2
  WARNING 09: time series interval greater than recording interval for Rain Gage RG3
  WARNING 09: time series interval greater than recording interval for Rain Gage RG4
  
  *********************************************************
  NOTE: The summary statistics displayed in this report are
  based on results found at every computational time step,  
  not just on results from each reporting time step.
  *********************************************************
  
  ****************
  Analysis Options
  ****************
  Flow Units ............... CMS
  Process Models:
    Rainfall/Runoff ........ YES
    RDII ................... NO
    Snowmelt ............... NO
    Groundwater ............ NO
    Flow Routing ........... YES
    Ponding Allowed ........ YES
    Water Quality .......... NO
  Infiltration Method ...... HORTON
  Flow Routing Method ...... DYNWAVE
  Surcharge Method ......... EXTRAN
  Starting Date ............ 08/28/2015 00:00:00
  Ending Date .............. 08/28/2015 23:40:00
  Antecedent Dry Days ...... 0.0
  Report Time Step ......... 00:01:00
  Wet Time Step ............ 00:01:00
  Dry Time Step ............ 00:01:00
  Routing Time Step ........ 5.00 sec
  Variable Time Step ....... YES
  Maximum Trials ........... 8
  Number of Threads ........ 1
  Head Tolerance ........... 0.001500 m
  
  
  **************************        Volume         Depth
  Runoff Quantity Continuity     hectare-m            mm
  **************************     ---------       -------
  Total Precipitation ......         1.840        10.211
  Evaporation Loss .........         0.000         0.000
  Infiltration Loss ........         0.000         0.000
  Surface Runoff ...........         1.761         9.772
  Final Storage ............         0.080         0.444
  Continuity Error (%) .....        -0.058
  
  
  **************************        Volume        Volume
  Flow Routing Continuity        hectare-m      10^6 ltr
  **************************     ---------     ---------
  Dry Weather Inflow .......         0.758         7.576
  Wet Weather Inflow .......         1.760        17.603
  Groundwater Inflow .......         0.000         0.000
  RDII Inflow ..............         0.000         0.000
  External Inflow ..........         0.000         0.000
  External Outflow .........         1.800        18.001
  Flooding Loss ............         0.132         1.324
  Evaporation Loss .........         0.000         0.000
  Exfiltration Loss ........         0.000         0.000
  Initial Stored Volume ....         0.000         0.000
  Final Stored Volume ......         0.469         4.689
  Continuity Error (%) .....         4.625
  
  
  *************************
  Highest Continuity Errors
  *************************
  Node T5 (10.09%)
  Node T3 (8.61%)
  Node T1 (3.97%)
  Node T6 (3.17%)
  
  
  ***************************
  Time-Step Critical Elements
  ***************************
  None
  
  
  ********************************
  Highest Flow Instability Indexes
  ********************************
  Link C15 (2)
  
  
  *************************
  Routing Time Step Summary
  *************************
  Minimum Time Step           :     4.50 sec
  Average Time Step           :     5.00 sec
  Maximum Time Step           :     5.00 sec
  Percent in Steady State     :     0.00
  Average Iterations per Step :     2.00
  Percent Not Converging      :     0.00
  
  
  ***************************
  Subcatchment Runoff Summary
  ***************************
  
  ------------------------------------------------------------------------------------------------------------------------------
                            Total      Total      Total      Total     Imperv       Perv      Total       Total     Peak  Runoff
                           Precip      Runon       Evap      Infil     Runoff     Runoff     Runoff      Runoff   Runoff   Coeff
  Subcatchment                 mm         mm         mm         mm         mm         mm         mm    10^6 ltr      CMS
  ------------------------------------------------------------------------------------------------------------------------------
  SC01                       7.31       0.00       0.00       0.00       7.09       0.00       7.09        2.34     0.10   0.969
  SC02                       9.75       0.00       0.00       0.00       9.39       0.00       9.39        2.14     0.09   0.963
  SC03                      12.80       0.00       0.00       0.00      12.37       0.00      12.37        2.23     0.09   0.966
  SC04                       9.75       0.00       0.00       0.00       9.23       0.00       9.23        0.64     0.02   0.947
  SC05                       7.31       0.00       0.00       0.00       7.07       0.00       7.07        1.10     0.05   0.967
  SC06                      12.03       0.00       0.00       0.00      11.37       0.00      11.37        3.70     0.12   0.945
  SC07                       9.75       0.00       0.00       0.00       9.23       0.00       9.23        0.44     0.02   0.947
  SC08                      12.80       0.00       0.00       0.00      12.16       0.00      12.16        3.41     0.12   0.950
  SC09                      12.03       0.00       0.00       0.00      11.56       0.00      11.56        0.80     0.03   0.961
  SC010                      7.31       0.00       0.00       0.00       7.02       0.00       7.02        0.83     0.03   0.961
  
  
  ******************
  Node Depth Summary
  ******************
  
  ---------------------------------------------------------------------------------
                                 Average  Maximum  Maximum  Time of Max    Reported
                                   Depth    Depth      HGL   Occurrence   Max Depth
  Node                 Type       Meters   Meters   Meters  days hr:min      Meters
  ---------------------------------------------------------------------------------
  J1                   JUNCTION     0.06     0.08    34.08     0  18:27        0.08
  J3                   JUNCTION     0.12     0.15    18.15     0  20:45        0.15
  CSO7                 JUNCTION     0.08     0.11    34.11     0  18:21        0.11
  J5                   JUNCTION     0.05     0.07    32.07     0  18:37        0.07
  CSO9                 JUNCTION     0.09     0.15    40.15     0  18:27        0.15
  J8                   JUNCTION     0.09     0.14    36.14     0  18:32        0.14
  CSO8                 JUNCTION     0.11     0.21    32.21     0  18:06        0.20
  J10                  JUNCTION     0.09     0.14    29.14     0  18:12        0.14
  J13                  JUNCTION     0.05     0.08    29.08     0  18:22        0.08
  J15                  JUNCTION     0.17     0.21    15.21     0  18:32        0.21
  J16                  JUNCTION     0.05     0.08    30.08     0  18:27        0.08
  CSO10                JUNCTION     0.09     0.14    30.14     0  18:27        0.14
  J12                  JUNCTION     0.13     0.19    26.19     0  21:45        0.19
  J4                   JUNCTION     0.09     0.13    33.13     0  18:38        0.13
  J6                   JUNCTION     0.06     0.08    25.08     0  19:13        0.08
  J2                   JUNCTION     0.06     0.07    25.07     0  19:54        0.07
  J19                  JUNCTION     0.15     0.17     8.17     0  17:36        0.17
  J9                   JUNCTION     0.11     0.14    29.14     0  19:32        0.14
  J14                  JUNCTION     0.14     0.18    20.18     0  21:59        0.18
  J17                  JUNCTION     0.08     0.10    20.10     0  19:02        0.10
  J7                   JUNCTION     0.07     0.11    39.11     0  18:33        0.11
  J11                  JUNCTION     0.09     0.15    31.15     0  18:13        0.15
  J18                  JUNCTION     0.04     0.07    29.07     0  18:29        0.07
  Out_to_WWTP          OUTFALL      0.15     0.17     6.17     0  17:34        0.17
  T5                   STORAGE      1.50     2.67    29.67     0  19:52        2.67
  T4                   STORAGE      0.43     0.92    27.92     0  19:11        0.92
  T6                   STORAGE      1.05     2.33    33.33     0  19:29        2.33
  T3                   STORAGE      2.10     4.19    26.19     0  21:49        4.19
  T2                   STORAGE      0.39     0.87    21.87     0  18:59        0.87
  T1                   STORAGE      3.30     5.00    15.00     0  17:35        5.00
  
  
  *******************
  Node Inflow Summary
  *******************
  
  -------------------------------------------------------------------------------------------------
                                  Maximum  Maximum                  Lateral       Total        Flow
                                  Lateral    Total  Time of Max      Inflow      Inflow     Balance
                                   Inflow   Inflow   Occurrence      Volume      Volume       Error
  Node                 Type           CMS      CMS  days hr:min    10^6 ltr    10^6 ltr     Percent
  -------------------------------------------------------------------------------------------------
  J1                   JUNCTION     0.058    0.058     0  18:26         2.2         2.2      -0.001
  J3                   JUNCTION     0.000    0.232     0  20:42           0        13.5       0.303
  CSO7                 JUNCTION     0.022    0.022     0  18:21           1           1       0.032
  J5                   JUNCTION     0.025    0.046     0  18:36       0.885        1.89       0.046
  CSO9                 JUNCTION     0.034    0.034     0  18:26        1.18        1.18       0.045
  J8                   JUNCTION     0.145    0.176     0  18:31        5.53        6.71       0.089
  CSO8                 JUNCTION     0.124    0.124     0  18:06        3.85        3.85       0.046
  J10                  JUNCTION     0.104    0.211     0  18:11        2.98        6.81       0.273
  J13                  JUNCTION     0.097    0.097     0  18:21        3.05        3.05      -0.054
  J15                  JUNCTION     0.000    0.402     0  18:27           0        20.9       0.434
  J16                  JUNCTION     0.110    0.110     0  18:26        3.42        3.42       0.018
  CSO10                JUNCTION     0.035    0.035     0  18:26         1.1         1.1       0.049
  J12                  JUNCTION     0.000    0.303     0  18:12           0        13.1       0.368
  J4                   JUNCTION     0.000    0.022     0  18:22           0           1       0.230
  J6                   JUNCTION     0.000    0.034     0  19:11           0        1.86       0.129
  J2                   JUNCTION     0.000    0.029     0  19:52           0        1.76       0.239
  J19                  JUNCTION     0.000    0.271     0  17:35           0          18       0.070
  J9                   JUNCTION     0.000    0.119     0  19:29           0        6.35       0.308
  J14                  JUNCTION     0.000    0.173     0  21:49           0        9.88       0.095
  J17                  JUNCTION     0.000    0.058     0  18:59           0           3       0.143
  J7                   JUNCTION     0.000    0.033     0  18:27           0        1.18       0.298
  J11                  JUNCTION     0.000    0.122     0  18:06           0        3.85       0.452
  J18                  JUNCTION     0.000    0.034     0  18:27           0         1.1       0.138
  Out_to_WWTP          OUTFALL      0.000    0.271     0  17:37           0          18       0.000
  T5                   STORAGE      0.000    0.055     0  18:27           0         2.2      11.222
  T4                   STORAGE      0.000    0.045     0  18:37           0        1.89       0.499
  T6                   STORAGE      0.000    0.171     0  18:32           0         6.7       3.275
  T3                   STORAGE      0.000    0.300     0  18:18           0        13.1       9.417
  T2                   STORAGE      0.000    0.091     0  18:22           0        3.05       0.506
  T1                   STORAGE      0.000    0.396     0  18:32           0        20.9       4.129
  
  
  **********************
  Node Surcharge Summary
  **********************
  
  No nodes were surcharged.
  
  
  *********************
  Node Flooding Summary
  *********************
  
  Flooding refers to all water that overflows a node, whether it ponds or not.
  --------------------------------------------------------------------------
                                                             Total   Maximum
                                 Maximum   Time of Max       Flood    Ponded
                        Hours       Rate    Occurrence      Volume     Depth
  Node                 Flooded       CMS   days hr:min    10^6 ltr    Meters
  --------------------------------------------------------------------------
  T1                      5.71     0.125      0  18:32       1.324     0.000
  
  
  **********************
  Storage Volume Summary
  **********************
  
  --------------------------------------------------------------------------------------------------
                         Average     Avg  Evap Exfil       Maximum     Max    Time of Max    Maximum
                          Volume    Pcnt  Pcnt  Pcnt        Volume    Pcnt     Occurrence    Outflow
  Storage Unit           1000 m3    Full  Loss  Loss       1000 m3    Full    days hr:min        CMS
  --------------------------------------------------------------------------------------------------
  T5                       0.150      30     0     0         0.267      53       0  19:52      0.029
  T4                       0.043       9     0     0         0.092      18       0  19:11      0.034
  T6                       0.126      21     0     0         0.279      47       0  19:29      0.119
  T3                       1.090      42     0     0         2.177      84       0  21:49      0.173
  T2                       0.078       8     0     0         0.173      17       0  18:59      0.058
  T1                       0.462      66     0     0         0.700     100       0  17:35      0.271
  
  
  ***********************
  Outfall Loading Summary
  ***********************
  
  -----------------------------------------------------------
                         Flow       Avg       Max       Total
                         Freq      Flow      Flow      Volume
  Outfall Node           Pcnt       CMS       CMS    10^6 ltr
  -----------------------------------------------------------
  Out_to_WWTP           99.58     0.212     0.271      18.001
  -----------------------------------------------------------
  System                99.58     0.212     0.271      18.001
  
  
  ********************
  Link Flow Summary
  ********************
  
  -----------------------------------------------------------------------------
                                 Maximum  Time of Max   Maximum    Max/    Max/
                                  |Flow|   Occurrence   |Veloc|    Full    Full
  Link                 Type          CMS  days hr:min     m/sec    Flow   Depth
  -----------------------------------------------------------------------------
  C1                   CONDUIT     0.029     0  19:54      0.88    0.01    0.11
  C6                   CONDUIT     0.021     0  18:38      1.01    0.34    0.34
  C2                   CONDUIT     0.034     0  19:13      0.95    0.04    0.19
  C9                   CONDUIT     0.031     0  18:33      0.83    0.11    0.25
  C16                  CONDUIT     0.115     0  18:13      1.12    0.01    0.07
  C3                   CONDUIT     0.173     0  21:50      2.07    0.07    0.16
  C19                  CONDUIT     0.058     0  19:02      0.81    0.02    0.15
  C11                  CONDUIT     0.232     0  20:45      1.82    0.01    0.09
  C20                  CONDUIT     0.103     0  18:27      1.54    0.00    0.07
  C22                  CONDUIT     0.032     0  18:29      0.64    0.01    0.18
  C12                  CONDUIT     0.119     0  19:32      1.20    0.01    0.08
  C17                  CONDUIT     0.203     0  18:12      1.79    0.01    0.08
  C10                  CONDUIT     0.171     0  18:32      1.16    0.02    0.55
  C13                  CONDUIT     0.300     0  18:18      1.60    0.02    0.55
  C18                  CONDUIT     0.091     0  18:22      1.43    0.00    0.23
  C23                  CONDUIT     0.396     0  18:32      1.39    0.04    0.57
  C4                   CONDUIT     0.055     0  18:27      1.49    0.01    0.54
  C7                   CONDUIT     0.045     0  18:37      1.13    0.01    0.49
  C14                  CONDUIT     0.271     0  17:37      2.08    0.02    0.09
  C5                   CONDUIT     0.022     0  18:22      0.95    0.38    0.47
  C8                   CONDUIT     0.033     0  18:27      1.08    0.41    0.41
  C15                  CONDUIT     0.122     0  18:06      2.14    0.39    0.39
  C21                  CONDUIT     0.034     0  18:27      1.20    0.19    0.24
  V4                   ORIFICE     0.034     0  19:11                      1.00
  V5                   ORIFICE     0.029     0  19:52                      1.00
  V1                   ORIFICE     0.271     0  17:35                      1.00
  V6                   ORIFICE     0.119     0  19:29                      1.00
  V3                   ORIFICE     0.173     0  21:49                      1.00
  V2                   ORIFICE     0.058     0  18:59                      1.00
  
  
  ***************************
  Flow Classification Summary
  ***************************
  
  -------------------------------------------------------------------------------------
                      Adjusted    ---------- Fraction of Time in Flow Class ---------- 
                       /Actual         Up    Down  Sub   Sup   Up    Down  Norm  Inlet 
  Conduit               Length    Dry  Dry   Dry   Crit  Crit  Crit  Crit  Ltd   Ctrl  
  -------------------------------------------------------------------------------------
  C1                      1.00   0.00  0.00  0.00  0.97  0.03  0.00  0.00  0.98  0.00
  C6                      1.00   0.00  0.00  0.00  0.01  0.99  0.00  0.00  0.00  0.00
  C2                      1.00   0.00  0.00  0.00  0.63  0.36  0.00  0.00  0.99  0.00
  C9                      1.00   0.00  0.00  0.00  1.00  0.00  0.00  0.00  1.00  0.00
  C16                     1.00   0.00  0.00  0.00  0.26  0.74  0.00  0.00  0.23  0.00
  C3                      1.00   0.00  0.00  0.00  0.02  0.98  0.00  0.00  0.02  0.00
  C19                     1.00   0.00  0.00  0.00  1.00  0.00  0.00  0.00  1.00  0.00
  C11                     1.00   0.00  0.00  0.00  0.04  0.96  0.00  0.00  1.00  0.00
  C20                     1.00   0.00  0.00  0.00  0.88  0.12  0.00  0.00  0.99  0.00
  C22                     1.00   0.00  0.00  0.00  0.99  0.01  0.00  0.00  1.00  0.00
  C12                     1.00   0.00  0.00  0.00  0.37  0.62  0.00  0.00  0.98  0.00
  C17                     1.00   0.00  0.00  0.00  0.32  0.68  0.00  0.00  0.98  0.00
  C10                     1.00   0.00  0.00  0.00  0.96  0.04  0.00  0.00  0.98  0.00
  C13                     1.00   0.00  0.00  0.00  0.96  0.04  0.00  0.00  0.90  0.00
  C18                     1.00   0.00  0.00  0.00  0.97  0.03  0.00  0.00  0.98  0.00
  C23                     1.00   0.00  0.00  0.00  0.97  0.03  0.00  0.00  0.98  0.00
  C4                      1.00   0.00  0.00  0.00  0.98  0.02  0.00  0.00  0.99  0.00
  C7                      1.00   0.00  0.00  0.00  0.96  0.04  0.00  0.00  0.98  0.00
  C14                     1.00   0.00  0.00  0.00  0.00  1.00  0.00  0.00  0.40  0.00
  C5                      1.00   0.00  0.00  0.00  0.89  0.11  0.00  0.00  0.99  0.00
  C8                      1.00   0.00  0.00  0.00  0.00  1.00  0.00  0.00  0.00  0.00
  C15                     1.00   0.00  0.00  0.00  0.00  1.00  0.00  0.00  0.00  0.00
  C21                     1.00   0.00  0.00  0.00  0.00  1.00  0.00  0.00  0.00  0.00
  
  
  *************************
  Conduit Surcharge Summary
  *************************
  
  ----------------------------------------------------------------------------
                                                           Hours        Hours 
                         --------- Hours Full --------   Above Full   Capacity
  Conduit                Both Ends  Upstream  Dnstream   Normal Flow   Limited
  ----------------------------------------------------------------------------
  C10                         0.01      0.01      5.22      0.01         0.01
  C13                         0.01      0.01      8.54      0.01         0.01
  C23                         0.01      0.01     21.48      0.01         0.01
  C4                          0.01      0.01     19.97      0.01         0.01
  

  Analysis begun on:  Mon Sep 20 14:53:57 2021
  Analysis ended on:  Mon Sep 20 14:53:57 2021
  Total elapsed time: < 1 sec