
  EPA STORM WATER MANAGEMENT MODEL - VERSION 5.1 (Build 5.3.0.dev0)
  --------------------------------------------------------------

  
  *********************************************************
  NOTE: The summary statistics displayed in this report are
  based on results found at every computational time step,  
  not just on results from each reporting time step.
  *********************************************************
  
  ****************
  Analysis Options
  ****************
  Flow Units ............... CMS
  Process Models:
    Rainfall/Runoff ........ YES
    RDII ................... NO
    Snowmelt ............... NO
    Groundwater ............ NO
    Flow Routing ........... YES
    Ponding Allowed ........ YES
    Water Quality .......... NO
  Infiltration Method ...... HORTON
  Flow Routing Method ...... DYNWAVE
  Surcharge Method ......... EXTRAN
  Starting Date ............ 08/28/2015 08:00:00
  Ending Date .............. 08/28/2015 15:50:00
  Antecedent Dry Days ...... 0.0
  Report Time Step ......... 00:01:00
  Wet Time Step ............ 00:01:00
  Dry Time Step ............ 00:01:00
  Routing Time Step ........ 5.00 sec
  Variable Time Step ....... YES
  Maximum Trials ........... 8
  Number of Threads ........ 1
  Head Tolerance ........... 0.001500 m
  
  
  **************************        Volume         Depth
  Runoff Quantity Continuity     hectare-m            mm
  **************************     ---------       -------
  Total Precipitation ......         2.096        11.629
  Evaporation Loss .........         0.000         0.000
  Infiltration Loss ........         0.000         0.000
  Surface Runoff ...........         2.072        11.496
  Final Storage ............         0.024         0.134
  Continuity Error (%) .....        -0.008
  
  
  **************************        Volume        Volume
  Flow Routing Continuity        hectare-m      10^6 ltr
  **************************     ---------     ---------
  Dry Weather Inflow .......         0.396         3.956
  Wet Weather Inflow .......         2.072        20.716
  Groundwater Inflow .......         0.000         0.000
  RDII Inflow ..............         0.000         0.000
  External Inflow ..........         0.000         0.000
  External Outflow .........         0.606         6.059
  Flooding Loss ............         1.016        10.161
  Evaporation Loss .........         0.000         0.000
  Exfiltration Loss ........         0.000         0.000
  Initial Stored Volume ....         0.000         0.000
  Final Stored Volume ......         0.688         6.880
  Continuity Error (%) .....         6.365
  
  
  *************************
  Highest Continuity Errors
  *************************
  Node T5 (17.03%)
  Node T3 (16.32%)
  Node T2 (10.48%)
  Node J12 (7.38%)
  Node T4 (7.07%)
  
  
  ***************************
  Time-Step Critical Elements
  ***************************
  None
  
  
  ********************************
  Highest Flow Instability Indexes
  ********************************
  All links are stable.
  
  
  *************************
  Routing Time Step Summary
  *************************
  Minimum Time Step           :     1.70 sec
  Average Time Step           :     5.00 sec
  Maximum Time Step           :     5.00 sec
  Percent in Steady State     :     0.00
  Average Iterations per Step :     2.18
  Percent Not Converging      :     0.58
  
  
  ***************************
  Subcatchment Runoff Summary
  ***************************
  
  ------------------------------------------------------------------------------------------------------------------------------
                            Total      Total      Total      Total     Imperv       Perv      Total       Total     Peak  Runoff
                           Precip      Runon       Evap      Infil     Runoff     Runoff     Runoff      Runoff   Runoff   Coeff
  Subcatchment                 mm         mm         mm         mm         mm         mm         mm    10^6 ltr      CMS
  ------------------------------------------------------------------------------------------------------------------------------
  SC01                      11.63       0.00       0.00       0.00      11.54       0.00      11.54        3.81     1.11   0.993
  SC02                      11.63       0.00       0.00       0.00      11.54       0.00      11.54        2.62     0.75   0.992
  SC03                      11.63       0.00       0.00       0.00      11.56       0.00      11.56        2.08     0.63   0.994
  SC04                      11.63       0.00       0.00       0.00      11.43       0.00      11.43        0.79     0.20   0.983
  SC05                      11.63       0.00       0.00       0.00      11.54       0.00      11.54        1.80     0.52   0.992
  SC06                      11.63       0.00       0.00       0.00      11.37       0.00      11.37        3.70     0.90   0.978
  SC07                      11.63       0.00       0.00       0.00      11.43       0.00      11.43        0.54     0.14   0.983
  SC08                      11.63       0.00       0.00       0.00      11.51       0.00      11.51        3.22     0.89   0.990
  SC09                      11.63       0.00       0.00       0.00      11.48       0.00      11.48        0.79     0.21   0.987
  SC010                     11.63       0.00       0.00       0.00      11.51       0.00      11.51        1.35     0.37   0.990
  
  
  ******************
  Node Depth Summary
  ******************
  
  ---------------------------------------------------------------------------------
                                 Average  Maximum  Maximum  Time of Max    Reported
                                   Depth    Depth      HGL   Occurrence   Max Depth
  Node                 Type       Meters   Meters   Meters  days hr:min      Meters
  ---------------------------------------------------------------------------------
  J1                   JUNCTION     0.08     0.24    34.24     0  02:53        0.24
  J3                   JUNCTION     0.14     0.17    18.17     0  03:40        0.17
  CSO7                 JUNCTION     0.23     1.20    35.20     0  02:21        1.20
  J5                   JUNCTION     0.07     0.18    32.18     0  02:57        0.18
  CSO9                 JUNCTION     0.30     2.00    42.00     0  02:34        2.00
  J8                   JUNCTION     0.13     0.34    36.34     0  02:58        0.34
  CSO8                 JUNCTION     0.32     2.00    34.00     0  02:32        2.00
  J10                  JUNCTION     0.11     0.32    29.32     0  02:53        0.32
  J13                  JUNCTION     0.07     0.23    29.23     0  02:53        0.23
  J15                  JUNCTION     0.22     0.44    15.44     0  02:56        0.44
  J16                  JUNCTION     0.08     0.26    30.26     0  02:53        0.26
  CSO10                JUNCTION     0.19     1.00    31.00     0  02:31        1.00
  J12                  JUNCTION     0.65     1.02    27.02     0  03:32        1.02
  J4                   JUNCTION     0.19     1.19    34.19     0  02:21        0.85
  J6                   JUNCTION     0.09     0.12    25.12     0  03:41        0.12
  J2                   JUNCTION     0.07     0.08    25.08     0  03:37        0.08
  J19                  JUNCTION     0.15     0.17     8.17     0  02:24        0.17
  J9                   JUNCTION     0.13     0.16    29.16     0  03:57        0.16
  J14                  JUNCTION     0.15     0.19    20.19     0  06:20        0.19
  J17                  JUNCTION     0.11     0.15    20.15     0  03:23        0.15
  J7                   JUNCTION     0.10     0.23    39.23     0  03:07        0.23
  J11                  JUNCTION     0.11     0.30    31.30     0  03:07        0.30
  J18                  JUNCTION     0.06     0.16    29.16     0  03:07        0.16
  Out_to_WWTP          OUTFALL      0.14     0.17     6.17     0  02:23        0.17
  T5                   STORAGE      3.45     5.00    32.00     0  02:46        5.00
  T4                   STORAGE      2.31     4.67    31.67     0  03:39        4.67
  T6                   STORAGE      2.79     5.00    36.00     0  02:44        5.00
  T3                   STORAGE      3.42     5.00    27.00     0  03:26        5.00
  T2                   STORAGE      2.41     5.00    26.00     0  03:16        5.00
  T1                   STORAGE      3.78     5.00    15.00     0  02:23        5.00
  
  
  *******************
  Node Inflow Summary
  *******************
  
  -------------------------------------------------------------------------------------------------
                                  Maximum  Maximum                  Lateral       Total        Flow
                                  Lateral    Total  Time of Max      Inflow      Inflow     Balance
                                   Inflow   Inflow   Occurrence      Volume      Volume       Error
  Node                 Type           CMS      CMS  days hr:min    10^6 ltr    10^6 ltr     Percent
  -------------------------------------------------------------------------------------------------
  J1                   JUNCTION     0.536    0.536     0  02:53        2.36        2.36       0.014
  J3                   JUNCTION     0.000    0.306     0  03:39           0        6.15       0.798
  CSO7                 JUNCTION     0.148    0.148     0  02:56       0.833       0.833       0.055
  J5                   JUNCTION     0.205    0.277     0  02:56       0.916        1.63       0.070
  CSO9                 JUNCTION     0.219    0.219     0  02:55       0.989       0.989       0.049
  J8                   JUNCTION     0.937    1.064     0  02:57        4.64        5.52       0.070
  CSO8                 JUNCTION     0.898    0.898     0  02:54        3.51        3.51       0.016
  J10                  JUNCTION     0.646    1.132     0  02:52        2.47         5.5      -0.044
  J13                  JUNCTION     0.771    0.771     0  02:53        3.09        3.09      -0.175
  J15                  JUNCTION     0.000    1.706     0  02:54           0        14.2       0.841
  J16                  JUNCTION     1.126    1.126     0  02:53        4.36        4.36      -0.033
  CSO10                JUNCTION     0.380    0.380     0  02:54        1.49        1.49       0.023
  J12                  JUNCTION     0.000    1.303     0  02:53           0        8.86       7.972
  J4                   JUNCTION     0.000    0.072     0  02:57           0       0.718       0.474
  J6                   JUNCTION     0.000    0.077     0  03:39           0        1.37       0.397
  J2                   JUNCTION     0.000    0.039     0  02:46           0       0.847       0.626
  J19                  JUNCTION     0.000    0.271     0  02:23           0        6.07       0.209
  J9                   JUNCTION     0.000    0.175     0  02:44           0        3.34       0.557
  J14                  JUNCTION     0.000    0.190     0  03:26           0        3.95       0.254
  J17                  JUNCTION     0.000    0.140     0  03:16           0        2.45       0.467
  J7                   JUNCTION     0.000    0.127     0  03:07           0       0.885       0.351
  J11                  JUNCTION     0.000    0.486     0  03:07           0        3.04       0.212
  J18                  JUNCTION     0.000    0.202     0  03:07           0        1.28       0.032
  Out_to_WWTP          OUTFALL      0.000    0.271     0  02:24           0        6.06       0.000
  T5                   STORAGE      0.000    0.536     0  02:53           0        2.36      20.522
  T4                   STORAGE      0.000    0.277     0  02:57           0        1.63       7.613
  T6                   STORAGE      0.000    1.064     0  02:58           0        5.52       5.405
  T3                   STORAGE      0.000    1.292     0  02:55           0         8.2      19.503
  T2                   STORAGE      0.000    0.770     0  02:53           0         3.1      11.707
  T1                   STORAGE      0.000    1.688     0  02:57           0        14.1       6.255
  
  
  **********************
  Node Surcharge Summary
  **********************
  
  Surcharging occurs when water rises above the top of the highest conduit.
  ---------------------------------------------------------------------
                                               Max. Height   Min. Depth
                                   Hours       Above Crown    Below Rim
  Node                 Type      Surcharged         Meters       Meters
  ---------------------------------------------------------------------
  CSO7                 JUNCTION        1.08          0.945        0.000
  CSO9                 JUNCTION        1.10          1.682        0.000
  CSO8                 JUNCTION        1.03          1.547        0.000
  CSO10                JUNCTION        0.73          0.560        0.000
  J4                   JUNCTION        1.04          0.892        0.808
  
  
  *********************
  Node Flooding Summary
  *********************
  
  Flooding refers to all water that overflows a node, whether it ponds or not.
  --------------------------------------------------------------------------
                                                             Total   Maximum
                                 Maximum   Time of Max       Flood    Ponded
                        Hours       Rate    Occurrence      Volume     Depth
  Node                 Flooded       CMS   days hr:min    10^6 ltr    Meters
  --------------------------------------------------------------------------
  CSO7                    0.89     0.076      0  02:56       0.115     0.000
  CSO9                    0.56     0.091      0  02:55       0.103     0.000
  CSO8                    0.59     0.412      0  02:54       0.475     0.000
  CSO10                   0.60     0.178      0  02:54       0.207     0.000
  T5                      1.34     0.497      0  02:53       0.708     0.000
  T6                      1.22     0.889      0  02:58       1.714     0.000
  T3                      1.31     0.421      0  03:26       0.363     0.000
  T2                      0.10     0.058      0  03:16       0.010     0.000
  T1                      5.45     1.417      0  02:57       6.467     0.000
  
  
  **********************
  Storage Volume Summary
  **********************
  
  --------------------------------------------------------------------------------------------------
                         Average     Avg  Evap Exfil       Maximum     Max    Time of Max    Maximum
                          Volume    Pcnt  Pcnt  Pcnt        Volume    Pcnt     Occurrence    Outflow
  Storage Unit           1000 m3    Full  Loss  Loss       1000 m3    Full    days hr:min        CMS
  --------------------------------------------------------------------------------------------------
  T5                       0.345      69     0     0         0.500     100       0  02:46      0.039
  T4                       0.231      46     0     0         0.467      93       0  03:39      0.077
  T6                       0.335      56     0     0         0.600     100       0  02:44      0.175
  T3                       1.779      68     0     0         2.600     100       0  03:26      0.378
  T2                       0.483      48     0     0         1.000     100       0  03:16      0.140
  T1                       0.530      76     0     0         0.700     100       0  02:23      0.271
  
  
  ***********************
  Outfall Loading Summary
  ***********************
  
  -----------------------------------------------------------
                         Flow       Avg       Max       Total
                         Freq      Flow      Flow      Volume
  Outfall Node           Pcnt       CMS       CMS    10^6 ltr
  -----------------------------------------------------------
  Out_to_WWTP           99.01     0.217     0.271       6.059
  -----------------------------------------------------------
  System                99.01     0.217     0.271       6.059
  
  
  ********************
  Link Flow Summary
  ********************
  
  -----------------------------------------------------------------------------
                                 Maximum  Time of Max   Maximum    Max/    Max/
                                  |Flow|   Occurrence   |Veloc|    Full    Full
  Link                 Type          CMS  days hr:min     m/sec    Flow   Depth
  -----------------------------------------------------------------------------
  C1                   CONDUIT     0.039     0  03:37      0.91    0.01    0.12
  C6                   CONDUIT     0.072     0  02:57      1.29    1.15    0.79
  C2                   CONDUIT     0.077     0  03:41      1.45    0.09    0.24
  C9                   CONDUIT     0.127     0  03:07      1.28    0.43    0.57
  C16                  CONDUIT     0.488     0  02:43      1.80    0.05    0.15
  C3                   CONDUIT     0.190     0  03:28      2.05    0.07    0.18
  C19                  CONDUIT     0.140     0  03:23      1.24    0.05    0.29
  C11                  CONDUIT     0.306     0  03:41      1.84    0.02    0.15
  C20                  CONDUIT     1.125     0  02:53      3.13    0.04    0.17
  C22                  CONDUIT     0.202     0  03:06      1.46    0.09    0.38
  C12                  CONDUIT     0.175     0  03:49      0.76    0.01    0.30
  C17                  CONDUIT     1.128     0  02:53      3.11    0.06    0.29
  C10                  CONDUIT     1.064     0  02:58      1.66    0.11    0.61
  C13                  CONDUIT     1.292     0  02:55      1.53    0.08    0.75
  C18                  CONDUIT     0.770     0  02:53      1.72    0.03    0.56
  C23                  CONDUIT     1.688     0  02:57      1.40    0.19    0.65
  C4                   CONDUIT     0.536     0  02:53      1.98    0.13    0.62
  C7                   CONDUIT     0.277     0  02:57      1.43    0.07    0.59
  C14                  CONDUIT     0.271     0  02:24      2.08    0.02    0.09
  C5                   CONDUIT     0.072     0  02:57      1.41    1.24    1.00
  C8                   CONDUIT     0.127     0  03:07      1.75    1.60    0.86
  C15                  CONDUIT     0.486     0  03:07      3.42    1.55    0.83
  C21                  CONDUIT     0.202     0  03:07      1.82    1.16    0.69
  V4                   ORIFICE     0.077     0  03:39                      1.00
  V5                   ORIFICE     0.039     0  02:46                      1.00
  V1                   ORIFICE     0.271     0  02:23                      1.00
  V6                   ORIFICE     0.175     0  02:44                      1.00
  V3                   ORIFICE     0.190     0  03:26                      1.00
  V2                   ORIFICE     0.140     0  03:16                      1.00
  
  
  ***************************
  Flow Classification Summary
  ***************************
  
  -------------------------------------------------------------------------------------
                      Adjusted    ---------- Fraction of Time in Flow Class ---------- 
                       /Actual         Up    Down  Sub   Sup   Up    Down  Norm  Inlet 
  Conduit               Length    Dry  Dry   Dry   Crit  Crit  Crit  Crit  Ltd   Ctrl  
  -------------------------------------------------------------------------------------
  C1                      1.00   0.00  0.00  0.00  0.92  0.08  0.00  0.00  0.95  0.00
  C6                      1.00   0.00  0.00  0.00  0.16  0.84  0.00  0.00  0.00  0.00
  C2                      1.00   0.00  0.00  0.00  0.01  0.99  0.00  0.00  0.94  0.00
  C9                      1.00   0.00  0.00  0.00  1.00  0.00  0.00  0.00  1.00  0.00
  C16                     1.00   0.00  0.00  0.00  0.54  0.46  0.00  0.00  0.39  0.00
  C3                      1.00   0.00  0.00  0.00  0.05  0.94  0.00  0.00  0.07  0.00
  C19                     1.00   0.00  0.00  0.00  0.60  0.40  0.00  0.00  1.00  0.00
  C11                     1.00   0.00  0.00  0.00  0.32  0.68  0.00  0.00  1.00  0.00
  C20                     1.00   0.00  0.00  0.00  0.62  0.38  0.00  0.00  0.98  0.00
  C22                     1.00   0.00  0.00  0.00  0.84  0.16  0.00  0.00  1.00  0.00
  C12                     1.00   0.00  0.00  0.00  0.93  0.06  0.00  0.00  1.00  0.00
  C17                     1.00   0.00  0.00  0.00  0.61  0.39  0.00  0.00  0.97  0.00
  C10                     1.00   0.00  0.00  0.00  0.94  0.06  0.00  0.00  0.97  0.00
  C13                     1.00   0.00  0.00  0.00  0.84  0.16  0.00  0.00  0.29  0.00
  C18                     1.00   0.00  0.00  0.00  0.82  0.18  0.00  0.00  0.97  0.00
  C23                     1.00   0.00  0.00  0.00  0.90  0.10  0.00  0.00  0.94  0.00
  C4                      1.00   0.00  0.00  0.00  0.96  0.04  0.00  0.00  0.98  0.00
  C7                      1.00   0.00  0.00  0.00  0.91  0.09  0.00  0.00  0.96  0.00
  C14                     1.00   0.00  0.00  0.00  0.00  0.99  0.00  0.00  0.00  0.00
  C5                      1.00   0.00  0.00  0.00  0.90  0.10  0.00  0.00  0.84  0.00
  C8                      1.00   0.00  0.00  0.00  0.18  0.82  0.00  0.00  0.00  0.00
  C15                     1.00   0.00  0.00  0.00  0.00  1.00  0.00  0.00  0.00  0.00
  C21                     1.00   0.00  0.00  0.00  0.00  1.00  0.00  0.00  0.00  0.00
  
  
  *************************
  Conduit Surcharge Summary
  *************************
  
  ----------------------------------------------------------------------------
                                                           Hours        Hours 
                         --------- Hours Full --------   Above Full   Capacity
  Conduit                Both Ends  Upstream  Dnstream   Normal Flow   Limited
  ----------------------------------------------------------------------------
  C6                          0.01      1.04      0.01      0.94         0.01
  C10                         0.01      0.01      5.76      0.01         0.01
  C13                         0.01      0.01      5.41      0.01         0.01
  C18                         0.01      0.01      4.62      0.01         0.01
  C23                         0.01      0.01      6.05      0.01         0.01
  C4                          0.01      0.01      6.08      0.01         0.01
  C7                          0.01      0.01      5.65      0.01         0.01
  C5                          1.08      1.08      1.20      1.16         1.05
  C8                          0.01      1.10      0.01      1.13         0.01
  C15                         0.01      1.03      0.01      1.12         0.01
  C21                         0.01      0.73      0.01      0.74         0.01
  

  Analysis begun on:  Fri Sep  3 16:45:25 2021
  Analysis ended on:  Fri Sep  3 16:45:25 2021
  Total elapsed time: < 1 sec