
  EPA STORM WATER MANAGEMENT MODEL - VERSION 5.1 (Build 5.3.0.dev0)
  --------------------------------------------------------------

  
  *********************************************************
  NOTE: The summary statistics displayed in this report are
  based on results found at every computational time step,  
  not just on results from each reporting time step.
  *********************************************************
  
  ****************
  Analysis Options
  ****************
  Flow Units ............... CMS
  Process Models:
    Rainfall/Runoff ........ YES
    RDII ................... NO
    Snowmelt ............... NO
    Groundwater ............ NO
    Flow Routing ........... YES
    Ponding Allowed ........ YES
    Water Quality .......... NO
  Infiltration Method ...... HORTON
  Flow Routing Method ...... DYNWAVE
  Surcharge Method ......... EXTRAN
  Starting Date ............ 08/28/2015 08:00:00
  Ending Date .............. 08/28/2015 15:50:00
  Antecedent Dry Days ...... 0.0
  Report Time Step ......... 00:01:00
  Wet Time Step ............ 00:01:00
  Dry Time Step ............ 00:01:00
  Routing Time Step ........ 5.00 sec
  Variable Time Step ....... YES
  Maximum Trials ........... 8
  Number of Threads ........ 1
  Head Tolerance ........... 0.001500 m
  
  
  **************************        Volume         Depth
  Runoff Quantity Continuity     hectare-m            mm
  **************************     ---------       -------
  Total Precipitation ......         2.652        14.714
  Evaporation Loss .........         0.000         0.000
  Infiltration Loss ........         0.000         0.000
  Surface Runoff ...........         2.628        14.586
  Final Storage ............         0.023         0.129
  Continuity Error (%) .....        -0.008
  
  
  **************************        Volume        Volume
  Flow Routing Continuity        hectare-m      10^6 ltr
  **************************     ---------     ---------
  Dry Weather Inflow .......         0.396         3.956
  Wet Weather Inflow .......         2.628        26.285
  Groundwater Inflow .......         0.000         0.000
  RDII Inflow ..............         0.000         0.000
  External Inflow ..........         0.000         0.000
  External Outflow .........         0.629         6.289
  Flooding Loss ............         1.566        15.661
  Evaporation Loss .........         0.000         0.000
  Exfiltration Loss ........         0.000         0.000
  Initial Stored Volume ....         0.000         0.000
  Final Stored Volume ......         0.676         6.765
  Continuity Error (%) .....         5.047
  
  
  *************************
  Highest Continuity Errors
  *************************
  Node T3 (14.43%)
  Node T5 (13.87%)
  Node T2 (8.01%)
  Node J12 (6.29%)
  Node T4 (6.02%)
  
  
  ***************************
  Time-Step Critical Elements
  ***************************
  None
  
  
  ********************************
  Highest Flow Instability Indexes
  ********************************
  All links are stable.
  
  
  *************************
  Routing Time Step Summary
  *************************
  Minimum Time Step           :     1.49 sec
  Average Time Step           :     5.00 sec
  Maximum Time Step           :     5.00 sec
  Percent in Steady State     :    -0.00
  Average Iterations per Step :     2.17
  Percent Not Converging      :     0.57
  
  
  ***************************
  Subcatchment Runoff Summary
  ***************************
  
  ------------------------------------------------------------------------------------------------------------------------------
                            Total      Total      Total      Total     Imperv       Perv      Total       Total     Peak  Runoff
                           Precip      Runon       Evap      Infil     Runoff     Runoff     Runoff      Runoff   Runoff   Coeff
  Subcatchment                 mm         mm         mm         mm         mm         mm         mm    10^6 ltr      CMS
  ------------------------------------------------------------------------------------------------------------------------------
  SC01                      14.71       0.00       0.00       0.00      14.63       0.00      14.63        4.83     1.37   0.994
  SC02                      14.71       0.00       0.00       0.00      14.62       0.00      14.62        3.33     0.93   0.994
  SC03                      14.71       0.00       0.00       0.00      14.65       0.00      14.65        2.64     0.78   0.995
  SC04                      14.71       0.00       0.00       0.00      14.52       0.00      14.52        1.00     0.24   0.987
  SC05                      14.71       0.00       0.00       0.00      14.62       0.00      14.62        2.28     0.64   0.994
  SC06                      14.71       0.00       0.00       0.00      14.47       0.00      14.47        4.71     1.08   0.983
  SC07                      14.71       0.00       0.00       0.00      14.52       0.00      14.52        0.69     0.17   0.987
  SC08                      14.71       0.00       0.00       0.00      14.60       0.00      14.60        4.09     1.09   0.992
  SC09                      14.71       0.00       0.00       0.00      14.57       0.00      14.57        1.01     0.26   0.991
  SC010                     14.71       0.00       0.00       0.00      14.60       0.00      14.60        1.72     0.46   0.992
  
  
  ******************
  Node Depth Summary
  ******************
  
  ---------------------------------------------------------------------------------
                                 Average  Maximum  Maximum  Time of Max    Reported
                                   Depth    Depth      HGL   Occurrence   Max Depth
  Node                 Type       Meters   Meters   Meters  days hr:min      Meters
  ---------------------------------------------------------------------------------
  J1                   JUNCTION     0.09     0.27    34.27     0  01:58        0.27
  J3                   JUNCTION     0.14     0.17    18.17     0  03:23        0.17
  CSO7                 JUNCTION     0.30     1.20    35.20     0  01:36        1.20
  J5                   JUNCTION     0.08     0.19    32.19     0  02:02        0.19
  CSO9                 JUNCTION     0.37     2.00    42.00     0  01:37        2.00
  J8                   JUNCTION     0.13     0.36    36.36     0  02:04        0.36
  CSO8                 JUNCTION     0.38     2.00    34.00     0  01:34        2.00
  J10                  JUNCTION     0.12     0.34    29.34     0  01:58        0.34
  J13                  JUNCTION     0.08     0.26    29.26     0  01:58        0.26
  J15                  JUNCTION     0.23     0.46    15.46     0  02:02        0.46
  J16                  JUNCTION     0.08     0.28    30.28     0  01:58        0.28
  CSO10                JUNCTION     0.22     1.00    31.00     0  01:32        1.00
  J12                  JUNCTION     0.72     1.03    27.03     0  02:54        1.03
  J4                   JUNCTION     0.22     1.48    34.48     0  01:36        0.77
  J6                   JUNCTION     0.10     0.12    25.12     0  03:15        0.12
  J2                   JUNCTION     0.07     0.08    25.08     0  02:52        0.08
  J19                  JUNCTION     0.15     0.17     8.17     0  01:51        0.17
  J9                   JUNCTION     0.13     0.16    29.16     0  03:17        0.16
  J14                  JUNCTION     0.16     0.19    20.19     0  06:08        0.19
  J17                  JUNCTION     0.12     0.15    20.15     0  02:52        0.15
  J7                   JUNCTION     0.10     0.23    39.23     0  02:27        0.23
  J11                  JUNCTION     0.12     0.30    31.30     0  02:26        0.30
  J18                  JUNCTION     0.07     0.16    29.16     0  02:12        0.16
  Out_to_WWTP          OUTFALL      0.15     0.17     6.17     0  01:51        0.17
  T5                   STORAGE      3.74     5.00    32.00     0  02:00        5.00
  T4                   STORAGE      2.73     5.00    32.00     0  02:45        5.00
  T6                   STORAGE      2.99     5.00    36.00     0  02:01        5.00
  T3                   STORAGE      3.74     5.00    27.00     0  02:46        5.00
  T2                   STORAGE      2.75     5.00    26.00     0  02:16        5.00
  T1                   STORAGE      4.00     5.00    15.00     0  01:50        5.00
  
  
  *******************
  Node Inflow Summary
  *******************
  
  -------------------------------------------------------------------------------------------------
                                  Maximum  Maximum                  Lateral       Total        Flow
                                  Lateral    Total  Time of Max      Inflow      Inflow     Balance
                                   Inflow   Inflow   Occurrence      Volume      Volume       Error
  Node                 Type           CMS      CMS  days hr:min    10^6 ltr    10^6 ltr     Percent
  -------------------------------------------------------------------------------------------------
  J1                   JUNCTION     0.656    0.656     0  01:58        2.84        2.84       0.001
  J3                   JUNCTION     0.000    0.309     0  02:49           0        6.58       0.751
  CSO7                 JUNCTION     0.177    0.177     0  02:02        0.98        0.98       0.049
  J5                   JUNCTION     0.247    0.320     0  02:02        1.13        1.89       0.043
  CSO9                 JUNCTION     0.266    0.266     0  02:00         1.2         1.2       0.031
  J8                   JUNCTION     1.111    1.238     0  02:03        5.65        6.62       0.040
  CSO8                 JUNCTION     1.103    1.103     0  01:59        4.38        4.38       0.009
  J10                  JUNCTION     0.795    1.281     0  01:57        3.02        6.38      -0.040
  J13                  JUNCTION     0.947    0.947     0  01:58        3.79        3.79      -0.198
  J15                  JUNCTION     0.000    1.901     0  01:59           0          16       0.738
  J16                  JUNCTION     1.387    1.387     0  01:58        5.38        5.38      -0.039
  CSO10                JUNCTION     0.466    0.466     0  01:59        1.85        1.85       0.014
  J12                  JUNCTION     0.000    1.430     0  01:59           0        9.87       6.708
  J4                   JUNCTION     0.000    0.077     0  01:36           0       0.766       0.426
  J6                   JUNCTION     0.000    0.080     0  02:45           0         1.5       0.359
  J2                   JUNCTION     0.000    0.039     0  02:00           0       0.892       0.589
  J19                  JUNCTION     0.000    0.271     0  01:50           0         6.3       0.201
  J9                   JUNCTION     0.000    0.175     0  02:01           0        3.49       0.530
  J14                  JUNCTION     0.000    0.190     0  02:46           0        4.21       0.238
  J17                  JUNCTION     0.000    0.140     0  02:16           0        2.65       0.435
  J7                   JUNCTION     0.000    0.127     0  02:27           0       0.975       0.322
  J11                  JUNCTION     0.000    0.487     0  02:26           0        3.36       0.196
  J18                  JUNCTION     0.000    0.202     0  02:12           0        1.42       0.018
  Out_to_WWTP          OUTFALL      0.000    0.271     0  01:52           0        6.29       0.000
  T5                   STORAGE      0.000    0.655     0  01:58           0        2.84      16.101
  T4                   STORAGE      0.000    0.319     0  02:02           0        1.89       6.409
  T6                   STORAGE      0.000    1.238     0  02:04           0        6.62       4.046
  T3                   STORAGE      0.000    1.419     0  02:01           0        9.25      16.863
  T2                   STORAGE      0.000    0.946     0  01:58           0         3.8       8.709
  T1                   STORAGE      0.000    1.879     0  02:02           0        15.9       5.468
  
  
  **********************
  Node Surcharge Summary
  **********************
  
  Surcharging occurs when water rises above the top of the highest conduit.
  ---------------------------------------------------------------------
                                               Max. Height   Min. Depth
                                   Hours       Above Crown    Below Rim
  Node                 Type      Surcharged         Meters       Meters
  ---------------------------------------------------------------------
  CSO7                 JUNCTION        1.57          0.945        0.000
  CSO9                 JUNCTION        1.59          1.682        0.000
  CSO8                 JUNCTION        1.59          1.547        0.000
  CSO10                JUNCTION        1.03          0.560        0.000
  J4                   JUNCTION        1.54          1.175        0.525
  
  
  *********************
  Node Flooding Summary
  *********************
  
  Flooding refers to all water that overflows a node, whether it ponds or not.
  --------------------------------------------------------------------------
                                                             Total   Maximum
                                 Maximum   Time of Max       Flood    Ponded
                        Hours       Rate    Occurrence      Volume     Depth
  Node                 Flooded       CMS   days hr:min    10^6 ltr    Meters
  --------------------------------------------------------------------------
  CSO7                    1.22     0.104      0  02:02       0.214     0.000
  CSO9                    0.83     0.139      0  02:00       0.227     0.000
  CSO8                    0.87     0.618      0  01:59       1.019     0.000
  CSO10                   0.88     0.264      0  01:59       0.438     0.000
  T5                      1.84     0.613      0  02:00       1.157     0.000
  T4                      0.65     0.088      0  02:45       0.126     0.000
  T6                      1.69     1.063      0  02:04       2.705     0.000
  T3                      1.97     0.727      0  02:57       1.192     0.000
  T2                      0.93     0.520      0  02:16       0.547     0.000
  T1                      5.99     1.608      0  02:02       8.036     0.000
  
  
  **********************
  Storage Volume Summary
  **********************
  
  --------------------------------------------------------------------------------------------------
                         Average     Avg  Evap Exfil       Maximum     Max    Time of Max    Maximum
                          Volume    Pcnt  Pcnt  Pcnt        Volume    Pcnt     Occurrence    Outflow
  Storage Unit           1000 m3    Full  Loss  Loss       1000 m3    Full    days hr:min        CMS
  --------------------------------------------------------------------------------------------------
  T5                       0.374      75     0     0         0.500     100       0  02:00      0.039
  T4                       0.273      55     0     0         0.500     100       0  02:45      0.080
  T6                       0.359      60     0     0         0.600     100       0  02:01      0.175
  T3                       1.945      75     0     0         2.600     100       0  02:46      0.288
  T2                       0.551      55     0     0         1.000     100       0  02:16      0.140
  T1                       0.560      80     0     0         0.700     100       0  01:50      0.271
  
  
  ***********************
  Outfall Loading Summary
  ***********************
  
  -----------------------------------------------------------
                         Flow       Avg       Max       Total
                         Freq      Flow      Flow      Volume
  Outfall Node           Pcnt       CMS       CMS    10^6 ltr
  -----------------------------------------------------------
  Out_to_WWTP           99.01     0.225     0.271       6.289
  -----------------------------------------------------------
  System                99.01     0.225     0.271       6.289
  
  
  ********************
  Link Flow Summary
  ********************
  
  -----------------------------------------------------------------------------
                                 Maximum  Time of Max   Maximum    Max/    Max/
                                  |Flow|   Occurrence   |Veloc|    Full    Full
  Link                 Type          CMS  days hr:min     m/sec    Flow   Depth
  -----------------------------------------------------------------------------
  C1                   CONDUIT     0.039     0  02:52      0.91    0.01    0.13
  C6                   CONDUIT     0.073     0  02:02      1.29    1.16    0.82
  C2                   CONDUIT     0.080     0  03:15      1.48    0.09    0.25
  C9                   CONDUIT     0.127     0  02:27      1.31    0.43    0.59
  C16                  CONDUIT     0.488     0  01:42      1.81    0.05    0.16
  C3                   CONDUIT     0.190     0  02:48      2.05    0.07    0.18
  C19                  CONDUIT     0.140     0  02:52      1.24    0.05    0.30
  C11                  CONDUIT     0.309     0  03:23      1.85    0.02    0.15
  C20                  CONDUIT     1.385     0  01:58      3.50    0.04    0.19
  C22                  CONDUIT     0.202     0  02:12      1.53    0.09    0.39
  C12                  CONDUIT     0.175     0  03:17      0.76    0.01    0.30
  C17                  CONDUIT     1.275     0  01:58      3.29    0.06    0.31
  C10                  CONDUIT     1.238     0  02:04      1.66    0.13    0.62
  C13                  CONDUIT     1.419     0  02:01      1.66    0.08    0.76
  C18                  CONDUIT     0.946     0  01:58      1.72    0.04    0.56
  C23                  CONDUIT     1.879     0  02:02      1.53    0.21    0.65
  C4                   CONDUIT     0.655     0  01:58      1.98    0.16    0.63
  C7                   CONDUIT     0.319     0  02:02      1.43    0.08    0.59
  C14                  CONDUIT     0.271     0  01:52      2.08    0.02    0.09
  C5                   CONDUIT     0.077     0  01:36      1.51    1.32    1.00
  C8                   CONDUIT     0.127     0  02:27      1.76    1.60    0.86
  C15                  CONDUIT     0.487     0  02:26      3.43    1.55    0.83
  C21                  CONDUIT     0.202     0  02:12      1.83    1.16    0.69
  V4                   ORIFICE     0.080     0  02:45                      1.00
  V5                   ORIFICE     0.039     0  02:00                      1.00
  V1                   ORIFICE     0.271     0  01:50                      1.00
  V6                   ORIFICE     0.175     0  02:01                      1.00
  V3                   ORIFICE     0.190     0  02:46                      1.00
  V2                   ORIFICE     0.140     0  02:16                      1.00
  
  
  ***************************
  Flow Classification Summary
  ***************************
  
  -------------------------------------------------------------------------------------
                      Adjusted    ---------- Fraction of Time in Flow Class ---------- 
                       /Actual         Up    Down  Sub   Sup   Up    Down  Norm  Inlet 
  Conduit               Length    Dry  Dry   Dry   Crit  Crit  Crit  Crit  Ltd   Ctrl  
  -------------------------------------------------------------------------------------
  C1                      1.00   0.00  0.00  0.00  0.92  0.08  0.00  0.00  0.95  0.00
  C6                      1.00   0.00  0.00  0.00  0.22  0.78  0.00  0.00  0.00  0.00
  C2                      1.00   0.00  0.00  0.00  0.01  0.99  0.00  0.00  0.94  0.00
  C9                      1.00   0.00  0.00  0.00  1.00  0.00  0.00  0.00  1.00  0.00
  C16                     1.00   0.00  0.00  0.00  0.56  0.44  0.00  0.00  0.52  0.00
  C3                      1.00   0.00  0.00  0.00  0.05  0.94  0.00  0.00  0.07  0.00
  C19                     1.00   0.00  0.00  0.00  0.60  0.39  0.00  0.00  1.00  0.00
  C11                     1.00   0.00  0.00  0.00  0.26  0.74  0.00  0.00  1.00  0.00
  C20                     1.00   0.00  0.00  0.00  0.64  0.36  0.00  0.00  0.98  0.00
  C22                     1.00   0.00  0.00  0.00  0.91  0.09  0.00  0.00  1.00  0.00
  C12                     1.00   0.00  0.00  0.00  0.94  0.06  0.00  0.00  1.00  0.00
  C17                     1.00   0.00  0.00  0.00  0.69  0.31  0.00  0.00  0.94  0.00
  C10                     1.00   0.00  0.00  0.00  0.94  0.06  0.00  0.00  0.97  0.00
  C13                     1.00   0.00  0.00  0.00  0.83  0.17  0.00  0.00  0.20  0.00
  C18                     1.00   0.00  0.00  0.00  0.83  0.17  0.00  0.00  0.97  0.00
  C23                     1.00   0.00  0.00  0.00  0.90  0.10  0.00  0.00  0.94  0.00
  C4                      1.00   0.00  0.00  0.00  0.96  0.04  0.00  0.00  0.98  0.00
  C7                      1.00   0.00  0.00  0.00  0.91  0.09  0.00  0.00  0.96  0.00
  C14                     1.00   0.00  0.00  0.00  0.00  0.99  0.00  0.00  0.00  0.00
  C5                      1.00   0.00  0.00  0.00  0.92  0.08  0.00  0.00  0.78  0.00
  C8                      1.00   0.00  0.00  0.00  0.22  0.78  0.00  0.00  0.00  0.00
  C15                     1.00   0.00  0.00  0.00  0.00  1.00  0.00  0.00  0.00  0.00
  C21                     1.00   0.00  0.00  0.00  0.01  0.99  0.00  0.00  0.00  0.00
  
  
  *************************
  Conduit Surcharge Summary
  *************************
  
  ----------------------------------------------------------------------------
                                                           Hours        Hours 
                         --------- Hours Full --------   Above Full   Capacity
  Conduit                Both Ends  Upstream  Dnstream   Normal Flow   Limited
  ----------------------------------------------------------------------------
  C6                          0.01      1.54      0.01      1.44         0.01
  C10                         0.01      0.01      6.01      0.01         0.01
  C13                         0.01      0.01      5.95      0.01         0.01
  C18                         0.01      0.01      5.14      0.01         0.01
  C23                         0.01      0.01      6.31      0.01         0.01
  C4                          0.01      0.01      6.36      0.01         0.01
  C7                          0.01      0.01      6.11      0.01         0.01
  C5                          1.55      1.57      1.65      1.60         1.52
  C8                          0.01      1.59      0.01      1.59         0.01
  C15                         0.01      1.59      0.01      1.63         0.01
  C21                         0.01      1.03      0.01      1.01         0.01
  

  Analysis begun on:  Fri Sep  3 16:49:34 2021
  Analysis ended on:  Fri Sep  3 16:49:34 2021
  Total elapsed time: < 1 sec