
  EPA STORM WATER MANAGEMENT MODEL - VERSION 5.1 (Build 5.3.0.dev0)
  --------------------------------------------------------------

  WARNING 09: time series interval greater than recording interval for Rain Gage RG1
  WARNING 09: time series interval greater than recording interval for Rain Gage RG2
  WARNING 09: time series interval greater than recording interval for Rain Gage RG3
  WARNING 09: time series interval greater than recording interval for Rain Gage RG4
  
  *********************************************************
  NOTE: The summary statistics displayed in this report are
  based on results found at every computational time step,  
  not just on results from each reporting time step.
  *********************************************************
  
  ****************
  Analysis Options
  ****************
  Flow Units ............... CMS
  Process Models:
    Rainfall/Runoff ........ YES
    RDII ................... NO
    Snowmelt ............... NO
    Groundwater ............ NO
    Flow Routing ........... YES
    Ponding Allowed ........ YES
    Water Quality .......... NO
  Infiltration Method ...... HORTON
  Flow Routing Method ...... DYNWAVE
  Surcharge Method ......... EXTRAN
  Starting Date ............ 08/28/2015 00:00:00
  Ending Date .............. 08/28/2015 23:40:00
  Antecedent Dry Days ...... 0.0
  Report Time Step ......... 00:01:00
  Wet Time Step ............ 00:01:00
  Dry Time Step ............ 00:01:00
  Routing Time Step ........ 5.00 sec
  Variable Time Step ....... YES
  Maximum Trials ........... 8
  Number of Threads ........ 1
  Head Tolerance ........... 0.001500 m
  
  
  **************************        Volume         Depth
  Runoff Quantity Continuity     hectare-m            mm
  **************************     ---------       -------
  Total Precipitation ......         2.248        12.473
  Evaporation Loss .........         0.000         0.000
  Infiltration Loss ........         0.000         0.000
  Surface Runoff ...........         2.229        12.370
  Final Storage ............         0.019         0.106
  Continuity Error (%) .....        -0.029
  
  
  **************************        Volume        Volume
  Flow Routing Continuity        hectare-m      10^6 ltr
  **************************     ---------     ---------
  Dry Weather Inflow .......         0.758         7.576
  Wet Weather Inflow .......         2.229        22.291
  Groundwater Inflow .......         0.000         0.000
  RDII Inflow ..............         0.000         0.000
  External Inflow ..........         0.000         0.000
  External Outflow .........         1.951        19.506
  Flooding Loss ............         0.624         6.244
  Evaporation Loss .........         0.000         0.000
  Exfiltration Loss ........         0.000         0.000
  Initial Stored Volume ....         0.000         0.000
  Final Stored Volume ......         0.341         3.408
  Continuity Error (%) .....         2.373
  
  
  *************************
  Highest Continuity Errors
  *************************
  Node T5 (8.88%)
  Node T3 (5.96%)
  Node T1 (2.33%)
  
  
  ***************************
  Time-Step Critical Elements
  ***************************
  None
  
  
  ********************************
  Highest Flow Instability Indexes
  ********************************
  Link C15 (2)
  
  
  *************************
  Routing Time Step Summary
  *************************
  Minimum Time Step           :     4.50 sec
  Average Time Step           :     5.00 sec
  Maximum Time Step           :     5.00 sec
  Percent in Steady State     :     0.00
  Average Iterations per Step :     2.00
  Percent Not Converging      :     0.00
  
  
  ***************************
  Subcatchment Runoff Summary
  ***************************
  
  ------------------------------------------------------------------------------------------------------------------------------
                            Total      Total      Total      Total     Imperv       Perv      Total       Total     Peak  Runoff
                           Precip      Runon       Evap      Infil     Runoff     Runoff     Runoff      Runoff   Runoff   Coeff
  Subcatchment                 mm         mm         mm         mm         mm         mm         mm    10^6 ltr      CMS
  ------------------------------------------------------------------------------------------------------------------------------
  SC01                      12.78       0.00       0.00       0.00      12.71       0.00      12.71        4.19     0.14   0.994
  SC02                      12.80       0.00       0.00       0.00      12.73       0.00      12.73        2.90     0.10   0.995
  SC03                      12.00       0.00       0.00       0.00      11.95       0.00      11.95        2.15     0.08   0.995
  SC04                      12.80       0.00       0.00       0.00      12.68       0.00      12.68        0.87     0.03   0.990
  SC05                      12.78       0.00       0.00       0.00      12.70       0.00      12.70        1.98     0.06   0.994
  SC06                      12.27       0.00       0.00       0.00      12.07       0.00      12.07        3.93     0.15   0.984
  SC07                      12.80       0.00       0.00       0.00      12.68       0.00      12.68        0.60     0.02   0.990
  SC08                      12.00       0.00       0.00       0.00      11.91       0.00      11.91        3.34     0.11   0.993
  SC09                      12.27       0.00       0.00       0.00      12.15       0.00      12.15        0.84     0.04   0.990
  SC010                     12.78       0.00       0.00       0.00      12.69       0.00      12.69        1.49     0.05   0.993
  
  
  ******************
  Node Depth Summary
  ******************
  
  ---------------------------------------------------------------------------------
                                 Average  Maximum  Maximum  Time of Max    Reported
                                   Depth    Depth      HGL   Occurrence   Max Depth
  Node                 Type       Meters   Meters   Meters  days hr:min      Meters
  ---------------------------------------------------------------------------------
  J1                   JUNCTION     0.06     0.09    34.09     0  07:27        0.09
  J3                   JUNCTION     0.13     0.16    18.16     0  14:07        0.16
  CSO7                 JUNCTION     0.08     0.12    34.12     0  11:36        0.12
  J5                   JUNCTION     0.05     0.08    32.08     0  11:37        0.08
  CSO9                 JUNCTION     0.09     0.17    40.17     0  18:02        0.17
  J8                   JUNCTION     0.09     0.15    36.15     0  18:12        0.15
  CSO8                 JUNCTION     0.10     0.20    32.20     0  07:16        0.20
  J10                  JUNCTION     0.08     0.14    29.14     0  07:22        0.14
  J13                  JUNCTION     0.06     0.09    29.09     0  07:22        0.09
  J15                  JUNCTION     0.18     0.23    15.23     0  13:03        0.23
  J16                  JUNCTION     0.06     0.10    30.10     0  07:27        0.10
  CSO10                JUNCTION     0.10     0.17    30.17     0  07:27        0.17
  J12                  JUNCTION     0.20     0.48    26.48     0  16:57        0.48
  J4                   JUNCTION     0.10     0.15    33.15     0  11:38        0.15
  J6                   JUNCTION     0.07     0.09    25.09     0  12:31        0.09
  J2                   JUNCTION     0.07     0.08    25.08     0  13:57        0.08
  J19                  JUNCTION     0.15     0.17     8.17     0  06:49        0.17
  J9                   JUNCTION     0.11     0.14    29.14     0  12:36        0.14
  J14                  JUNCTION     0.15     0.18    20.18     0  17:02        0.18
  J17                  JUNCTION     0.08     0.11    20.11     0  12:00        0.11
  J7                   JUNCTION     0.07     0.12    39.12     0  18:09        0.12
  J11                  JUNCTION     0.08     0.15    31.15     0  07:23        0.15
  J18                  JUNCTION     0.05     0.08    29.08     0  07:38        0.08
  Out_to_WWTP          OUTFALL      0.15     0.17     6.17     0  06:48        0.17
  T5                   STORAGE      3.21     5.00    32.00     0  13:13        5.00
  T4                   STORAGE      0.73     1.52    28.52     0  12:29        1.52
  T6                   STORAGE      1.33     2.36    33.36     0  12:34        2.36
  T3                   STORAGE      2.92     4.48    26.48     0  16:52        4.48
  T2                   STORAGE      0.67     1.33    22.33     0  11:59        1.33
  T1                   STORAGE      4.05     5.00    15.00     0  06:48        5.00
  
  
  *******************
  Node Inflow Summary
  *******************
  
  -------------------------------------------------------------------------------------------------
                                  Maximum  Maximum                  Lateral       Total        Flow
                                  Lateral    Total  Time of Max      Inflow      Inflow     Balance
                                   Inflow   Inflow   Occurrence      Volume      Volume       Error
  Node                 Type           CMS      CMS  days hr:min    10^6 ltr    10^6 ltr     Percent
  -------------------------------------------------------------------------------------------------
  J1                   JUNCTION     0.080    0.080     0  07:26        3.07        3.07      -0.042
  J3                   JUNCTION     0.000    0.258     0  14:05           0        16.1       0.221
  CSO7                 JUNCTION     0.028    0.028     0  11:36        1.17        1.17       0.010
  J5                   JUNCTION     0.029    0.054     0  11:36        1.12        2.29      -0.008
  CSO9                 JUNCTION     0.044    0.044     0  18:01        1.22        1.22       0.009
  J8                   JUNCTION     0.169    0.207     0  18:11        5.76        6.98      -0.013
  CSO8                 JUNCTION     0.117    0.117     0  07:16        3.78        3.78      -0.001
  J10                  JUNCTION     0.088    0.192     0  07:21         2.9        6.68      -0.023
  J13                  JUNCTION     0.106    0.106     0  07:21        3.81        3.81      -0.075
  J15                  JUNCTION     0.000    0.471     0  12:57           0        26.9       0.267
  J16                  JUNCTION     0.153    0.153     0  07:26        5.27        5.27      -0.029
  CSO10                JUNCTION     0.050    0.050     0  07:26        1.76        1.76       0.006
  J12                  JUNCTION     0.000    0.277     0  07:22           0        13.6       0.031
  J4                   JUNCTION     0.000    0.027     0  11:36           0        1.17       0.099
  J6                   JUNCTION     0.000    0.044     0  12:30           0        2.29       0.012
  J2                   JUNCTION     0.000    0.039     0  13:13           0         2.5       0.187
  J19                  JUNCTION     0.000    0.271     0  06:48           0        19.5       0.058
  J9                   JUNCTION     0.000    0.120     0  12:34           0        6.96       0.107
  J14                  JUNCTION     0.000    0.180     0  16:52           0        11.4       0.073
  J17                  JUNCTION     0.000    0.072     0  11:59           0         3.8       0.008
  J7                   JUNCTION     0.000    0.042     0  18:07           0        1.22       0.087
  J11                  JUNCTION     0.000    0.116     0  07:16           0        3.78       0.013
  J18                  JUNCTION     0.000    0.048     0  07:27           0        1.76      -0.017
  Out_to_WWTP          OUTFALL      0.000    0.271     0  06:50           0        19.5       0.000
  T5                   STORAGE      0.000    0.076     0  07:27           0        3.08       9.750
  T4                   STORAGE      0.000    0.054     0  11:37           0        2.29       0.046
  T6                   STORAGE      0.000    0.202     0  18:12           0        6.98       0.121
  T3                   STORAGE      0.000    0.275     0  07:24           0        13.6       6.343
  T2                   STORAGE      0.000    0.100     0  07:22           0        3.81       0.091
  T1                   STORAGE      0.000    0.467     0  13:03           0        26.9       2.388
  
  
  **********************
  Node Surcharge Summary
  **********************
  
  No nodes were surcharged.
  
  
  *********************
  Node Flooding Summary
  *********************
  
  Flooding refers to all water that overflows a node, whether it ponds or not.
  --------------------------------------------------------------------------
                                                             Total   Maximum
                                 Maximum   Time of Max       Flood    Ponded
                        Hours       Rate    Occurrence      Volume     Depth
  Node                 Flooded       CMS   days hr:min    10^6 ltr    Meters
  --------------------------------------------------------------------------
  T5                      1.26     0.019      0  13:13       0.038     0.000
  T1                     13.59     0.197      0  13:03       6.206     0.000
  
  
  **********************
  Storage Volume Summary
  **********************
  
  --------------------------------------------------------------------------------------------------
                         Average     Avg  Evap Exfil       Maximum     Max    Time of Max    Maximum
                          Volume    Pcnt  Pcnt  Pcnt        Volume    Pcnt     Occurrence    Outflow
  Storage Unit           1000 m3    Full  Loss  Loss       1000 m3    Full    days hr:min        CMS
  --------------------------------------------------------------------------------------------------
  T5                       0.321      64     0     0         0.500     100       0  13:13      0.039
  T4                       0.073      15     0     0         0.152      30       0  12:29      0.044
  T6                       0.160      27     0     0         0.283      47       0  12:34      0.120
  T3                       1.520      58     0     0         2.332      90       0  16:52      0.180
  T2                       0.135      13     0     0         0.265      27       0  11:59      0.072
  T1                       0.567      81     0     0         0.700     100       0  06:48      0.271
  
  
  ***********************
  Outfall Loading Summary
  ***********************
  
  -----------------------------------------------------------
                         Flow       Avg       Max       Total
                         Freq      Flow      Flow      Volume
  Outfall Node           Pcnt       CMS       CMS    10^6 ltr
  -----------------------------------------------------------
  Out_to_WWTP           99.43     0.230     0.271      19.506
  -----------------------------------------------------------
  System                99.43     0.230     0.271      19.506
  
  
  ********************
  Link Flow Summary
  ********************
  
  -----------------------------------------------------------------------------
                                 Maximum  Time of Max   Maximum    Max/    Max/
                                  |Flow|   Occurrence   |Veloc|    Full    Full
  Link                 Type          CMS  days hr:min     m/sec    Flow   Depth
  -----------------------------------------------------------------------------
  C1                   CONDUIT     0.039     0  13:58      0.76    0.01    0.12
  C6                   CONDUIT     0.027     0  11:38      1.08    0.42    0.38
  C2                   CONDUIT     0.044     0  12:31      1.03    0.05    0.21
  C9                   CONDUIT     0.040     0  18:09      0.91    0.14    0.27
  C16                  CONDUIT     0.109     0  07:23      1.12    0.01    0.07
  C3                   CONDUIT     0.180     0  16:53      2.05    0.07    0.17
  C19                  CONDUIT     0.072     0  12:00      0.87    0.02    0.17
  C11                  CONDUIT     0.258     0  14:07      1.87    0.01    0.10
  C20                  CONDUIT     0.144     0  07:27      1.36    0.00    0.08
  C22                  CONDUIT     0.046     0  07:38      0.77    0.02    0.19
  C12                  CONDUIT     0.120     0  12:36      1.22    0.01    0.15
  C17                  CONDUIT     0.186     0  07:22      1.70    0.01    0.15
  C10                  CONDUIT     0.202     0  18:12      1.00    0.02    0.55
  C13                  CONDUIT     0.275     0  07:24      1.08    0.02    0.62
  C18                  CONDUIT     0.100     0  07:22      1.01    0.00    0.35
  C23                  CONDUIT     0.467     0  13:03      0.99    0.05    0.58
  C4                   CONDUIT     0.076     0  07:27      1.13    0.02    0.55
  C7                   CONDUIT     0.054     0  11:37      0.86    0.01    0.54
  C14                  CONDUIT     0.271     0  06:50      2.08    0.02    0.09
  C5                   CONDUIT     0.027     0  11:36      1.00    0.47    0.53
  C8                   CONDUIT     0.042     0  18:07      1.21    0.53    0.46
  C15                  CONDUIT     0.116     0  07:16      2.08    0.37    0.38
  C21                  CONDUIT     0.048     0  07:27      1.34    0.28    0.29
  V4                   ORIFICE     0.044     0  12:30                      1.00
  V5                   ORIFICE     0.039     0  13:13                      1.00
  V1                   ORIFICE     0.271     0  06:48                      1.00
  V6                   ORIFICE     0.120     0  12:34                      1.00
  V3                   ORIFICE     0.180     0  16:52                      1.00
  V2                   ORIFICE     0.072     0  11:59                      1.00
  
  
  ***************************
  Flow Classification Summary
  ***************************
  
  -------------------------------------------------------------------------------------
                      Adjusted    ---------- Fraction of Time in Flow Class ---------- 
                       /Actual         Up    Down  Sub   Sup   Up    Down  Norm  Inlet 
  Conduit               Length    Dry  Dry   Dry   Crit  Crit  Crit  Crit  Ltd   Ctrl  
  -------------------------------------------------------------------------------------
  C1                      1.00   0.00  0.00  0.00  0.93  0.07  0.00  0.00  0.97  0.00
  C6                      1.00   0.00  0.00  0.00  0.01  0.99  0.00  0.00  0.00  0.00
  C2                      1.00   0.00  0.00  0.00  0.35  0.65  0.00  0.00  0.97  0.00
  C9                      1.00   0.00  0.00  0.00  1.00  0.00  0.00  0.00  1.00  0.00
  C16                     1.00   0.00  0.02  0.00  0.32  0.66  0.00  0.00  0.31  0.00
  C3                      1.00   0.00  0.00  0.00  0.03  0.96  0.00  0.00  0.06  0.00
  C19                     1.00   0.00  0.00  0.00  1.00  0.00  0.00  0.00  1.00  0.00
  C11                     1.00   0.00  0.00  0.00  0.11  0.89  0.00  0.00  1.00  0.00
  C20                     1.00   0.00  0.00  0.00  0.74  0.26  0.00  0.00  0.99  0.00
  C22                     1.00   0.00  0.00  0.00  1.00  0.00  0.00  0.00  1.00  0.00
  C12                     1.00   0.00  0.00  0.00  0.67  0.33  0.00  0.00  0.86  0.00
  C17                     1.00   0.00  0.00  0.00  0.51  0.49  0.00  0.00  0.99  0.00
  C10                     1.00   0.00  0.00  0.00  0.88  0.12  0.00  0.00  0.98  0.00
  C13                     1.00   0.00  0.00  0.00  0.89  0.11  0.00  0.00  0.58  0.00
  C18                     1.00   0.00  0.00  0.00  0.80  0.20  0.00  0.00  0.97  0.00
  C23                     1.00   0.00  0.00  0.00  0.93  0.07  0.00  0.00  0.95  0.00
  C4                      1.00   0.00  0.00  0.00  0.94  0.06  0.00  0.00  0.98  0.00
  C7                      1.00   0.00  0.00  0.00  0.84  0.16  0.00  0.00  0.94  0.00
  C14                     1.00   0.00  0.00  0.00  0.00  1.00  0.00  0.00  0.11  0.00
  C5                      1.00   0.00  0.00  0.00  0.89  0.11  0.00  0.00  0.99  0.00
  C8                      1.00   0.00  0.00  0.00  0.13  0.87  0.00  0.00  0.00  0.00
  C15                     1.00   0.02  0.00  0.00  0.00  0.98  0.00  0.00  0.01  0.00
  C21                     1.00   0.00  0.00  0.00  0.00  1.00  0.00  0.00  0.00  0.00
  
  
  *************************
  Conduit Surcharge Summary
  *************************
  
  ----------------------------------------------------------------------------
                                                           Hours        Hours 
                         --------- Hours Full --------   Above Full   Capacity
  Conduit                Both Ends  Upstream  Dnstream   Normal Flow   Limited
  ----------------------------------------------------------------------------
  C10                         0.01      0.01     12.44      0.01         0.01
  C13                         0.01      0.01     16.58      0.01         0.01
  C23                         0.01      0.01     20.08      0.01         0.01
  C4                          0.01      0.01     19.74      0.01         0.01
  C7                          0.01      0.01      8.36      0.01         0.01
  

  Analysis begun on:  Mon Sep 20 14:38:09 2021
  Analysis ended on:  Mon Sep 20 14:38:09 2021
  Total elapsed time: < 1 sec