
  EPA STORM WATER MANAGEMENT MODEL - VERSION 5.1 (Build 5.3.0.dev0)
  --------------------------------------------------------------

  WARNING 09: time series interval greater than recording interval for Rain Gage RG1
  WARNING 09: time series interval greater than recording interval for Rain Gage RG2
  WARNING 09: time series interval greater than recording interval for Rain Gage RG3
  WARNING 09: time series interval greater than recording interval for Rain Gage RG4
  
  *********************************************************
  NOTE: The summary statistics displayed in this report are
  based on results found at every computational time step,  
  not just on results from each reporting time step.
  *********************************************************
  
  ****************
  Analysis Options
  ****************
  Flow Units ............... CMS
  Process Models:
    Rainfall/Runoff ........ YES
    RDII ................... NO
    Snowmelt ............... NO
    Groundwater ............ NO
    Flow Routing ........... YES
    Ponding Allowed ........ YES
    Water Quality .......... NO
  Infiltration Method ...... HORTON
  Flow Routing Method ...... DYNWAVE
  Surcharge Method ......... EXTRAN
  Starting Date ............ 08/28/2015 00:00:00
  Ending Date .............. 08/28/2015 23:40:00
  Antecedent Dry Days ...... 0.0
  Report Time Step ......... 00:01:00
  Wet Time Step ............ 00:01:00
  Dry Time Step ............ 00:01:00
  Routing Time Step ........ 5.00 sec
  Variable Time Step ....... YES
  Maximum Trials ........... 8
  Number of Threads ........ 1
  Head Tolerance ........... 0.001500 m
  
  
  **************************        Volume         Depth
  Runoff Quantity Continuity     hectare-m            mm
  **************************     ---------       -------
  Total Precipitation ......         3.182        17.658
  Evaporation Loss .........         0.000         0.000
  Infiltration Loss ........         0.000         0.000
  Surface Runoff ...........         2.998        16.640
  Final Storage ............         0.189         1.051
  Continuity Error (%) .....        -0.184
  
  
  **************************        Volume        Volume
  Flow Routing Continuity        hectare-m      10^6 ltr
  **************************     ---------     ---------
  Dry Weather Inflow .......         0.758         7.576
  Wet Weather Inflow .......         2.996        29.958
  Groundwater Inflow .......         0.000         0.000
  RDII Inflow ..............         0.000         0.000
  External Inflow ..........         0.000         0.000
  External Outflow .........         0.941         9.414
  Flooding Loss ............         1.683        16.835
  Evaporation Loss .........         0.000         0.000
  Exfiltration Loss ........         0.000         0.000
  Initial Stored Volume ....         0.000         0.000
  Final Stored Volume ......         0.854         8.544
  Continuity Error (%) .....         7.302
  
  
  *************************
  Highest Continuity Errors
  *************************
  Node T2 (21.26%)
  Node T5 (14.25%)
  Node T4 (13.91%)
  Node T3 (12.91%)
  Node J12 (7.21%)
  
  
  ***************************
  Time-Step Critical Elements
  ***************************
  None
  
  
  ********************************
  Highest Flow Instability Indexes
  ********************************
  All links are stable.
  
  
  *************************
  Routing Time Step Summary
  *************************
  Minimum Time Step           :     4.50 sec
  Average Time Step           :     5.00 sec
  Maximum Time Step           :     5.00 sec
  Percent in Steady State     :     0.00
  Average Iterations per Step :     2.33
  Percent Not Converging      :     2.45
  
  
  ***************************
  Subcatchment Runoff Summary
  ***************************
  
  ------------------------------------------------------------------------------------------------------------------------------
                            Total      Total      Total      Total     Imperv       Perv      Total       Total     Peak  Runoff
                           Precip      Runon       Evap      Infil     Runoff     Runoff     Runoff      Runoff   Runoff   Coeff
  Subcatchment                 mm         mm         mm         mm         mm         mm         mm    10^6 ltr      CMS
  ------------------------------------------------------------------------------------------------------------------------------
  SC01                      16.18       0.00       0.00       0.00      15.40       0.00      15.40        5.08     0.71   0.952
  SC02                      11.24       0.00       0.00       0.00      10.49       0.00      10.49        2.39     0.49   0.933
  SC03                      14.62       0.00       0.00       0.00      14.16       0.00      14.16        2.55     0.51   0.969
  SC04                      11.24       0.00       0.00       0.00       9.86       0.00       9.86        0.68     0.11   0.877
  SC05                      16.18       0.00       0.00       0.00      15.33       0.00      15.33        2.39     0.32   0.948
  SC06                      29.06       0.00       0.00       0.00      27.26       0.00      27.26        8.87     1.93   0.938
  SC07                      11.24       0.00       0.00       0.00       9.86       0.00       9.86        0.47     0.07   0.877
  SC08                      14.62       0.00       0.00       0.00      13.76       0.00      13.76        3.85     0.67   0.941
  SC09                      29.06       0.00       0.00       0.00      27.86       0.00      27.86        1.92     0.49   0.959
  SC010                     16.18       0.00       0.00       0.00      15.13       0.00      15.13        1.78     0.22   0.935
  
  
  ******************
  Node Depth Summary
  ******************
  
  ---------------------------------------------------------------------------------
                                 Average  Maximum  Maximum  Time of Max    Reported
                                   Depth    Depth      HGL   Occurrence   Max Depth
  Node                 Type       Meters   Meters   Meters  days hr:min      Meters
  ---------------------------------------------------------------------------------
  J1                   JUNCTION     0.06     0.18    34.18     0  20:16        0.18
  J3                   JUNCTION     0.09     0.17    18.17     0  23:24        0.17
  CSO7                 JUNCTION     0.10     1.20    35.20     0  21:15        1.20
  J5                   JUNCTION     0.04     0.14    32.14     0  22:07        0.14
  CSO9                 JUNCTION     0.23     2.00    42.00     0  20:06        2.00
  J8                   JUNCTION     0.09     0.46    36.46     0  20:56        0.46
  CSO8                 JUNCTION     0.13     2.00    34.00     0  21:46        2.00
  J10                  JUNCTION     0.07     0.29    29.29     0  22:17        0.29
  J13                  JUNCTION     0.04     0.18    29.18     0  21:06        0.18
  J15                  JUNCTION     0.13     0.35    15.35     0  22:23        0.35
  J16                  JUNCTION     0.05     0.20    30.20     0  20:16        0.20
  CSO10                JUNCTION     0.09     1.00    31.00     0  20:16        1.00
  J12                  JUNCTION     0.15     1.07    27.07     0  22:24        1.07
  J4                   JUNCTION     0.10     1.16    34.16     0  21:15        0.81
  J6                   JUNCTION     0.05     0.11    25.11     0  23:23        0.11
  J2                   JUNCTION     0.05     0.08    25.08     0  21:58        0.08
  J19                  JUNCTION     0.10     0.17     8.17     0  20:37        0.17
  J9                   JUNCTION     0.08     0.16    29.16     0  22:24        0.16
  J14                  JUNCTION     0.09     0.19    20.19     0  22:24        0.19
  J17                  JUNCTION     0.05     0.14    20.14     0  23:20        0.14
  J7                   JUNCTION     0.07     0.23    39.23     0  21:34        0.23
  J11                  JUNCTION     0.06     0.30    31.30     0  22:28        0.30
  J18                  JUNCTION     0.04     0.16    29.16     0  20:22        0.16
  Out_to_WWTP          OUTFALL      0.10     0.17     6.17     0  20:36        0.17
  T5                   STORAGE      1.14     5.00    32.00     0  21:10        5.00
  T4                   STORAGE      0.40     3.69    30.69     0  23:20        3.69
  T6                   STORAGE      0.85     5.00    36.00     0  20:36        5.00
  T3                   STORAGE      0.80     5.00    27.00     0  22:23        5.00
  T2                   STORAGE      0.38     3.63    24.63     0  23:19        3.63
  T1                   STORAGE      1.28     5.00    15.00     0  20:35        5.00
  
  
  *******************
  Node Inflow Summary
  *******************
  
  -------------------------------------------------------------------------------------------------
                                  Maximum  Maximum                  Lateral       Total        Flow
                                  Lateral    Total  Time of Max      Inflow      Inflow     Balance
                                   Inflow   Inflow   Occurrence      Volume      Volume       Error
  Node                 Type           CMS      CMS  days hr:min    10^6 ltr    10^6 ltr     Percent
  -------------------------------------------------------------------------------------------------
  J1                   JUNCTION     0.334    0.334     0  20:16        3.48        3.48       0.205
  J3                   JUNCTION     0.000    0.297     0  23:23           0        7.41       0.701
  CSO7                 JUNCTION     0.076    0.076     0  22:06        1.03        1.03       0.099
  J5                   JUNCTION     0.108    0.178     0  22:06       0.927        1.95       0.319
  CSO9                 JUNCTION     0.490    0.490     0  20:56         2.3         2.3       0.072
  J8                   JUNCTION     1.955    2.083     0  20:56        10.7        12.3       0.213
  CSO8                 JUNCTION     0.671    0.671     0  22:16         4.3         4.3       0.038
  J10                  JUNCTION     0.513    0.986     0  22:16         3.3        7.46       0.309
  J13                  JUNCTION     0.496    0.496     0  21:06        3.29        3.29       0.048
  J15                  JUNCTION     0.000    1.110     0  22:17           0        17.4       1.066
  J16                  JUNCTION     0.718    0.718     0  20:16        6.16        6.16       0.184
  CSO10                JUNCTION     0.221    0.221     0  20:16        2.05        2.05       0.103
  J12                  JUNCTION     0.000    1.082     0  22:17           0        11.5       7.774
  J4                   JUNCTION     0.000    0.074     0  21:11           0        1.03       0.696
  J6                   JUNCTION     0.000    0.068     0  23:20           0        1.31       0.601
  J2                   JUNCTION     0.000    0.039     0  21:10           0         1.3       0.450
  J19                  JUNCTION     0.000    0.271     0  20:35           0        9.43       0.134
  J9                   JUNCTION     0.000    0.175     0  20:36           0         4.1       0.788
  J14                  JUNCTION     0.000    0.190     0  22:23           0        4.82       0.207
  J17                  JUNCTION     0.000    0.119     0  23:19           0        1.87       0.817
  J7                   JUNCTION     0.000    0.127     0  21:35           0        1.61       0.724
  J11                  JUNCTION     0.000    0.486     0  22:28           0        4.19       0.690
  J18                  JUNCTION     0.000    0.201     0  20:21           0        2.04       0.541
  Out_to_WWTP          OUTFALL      0.000    0.271     0  20:37           0        9.41       0.000
  T5                   STORAGE      0.000    0.307     0  20:17           0        3.48      16.614
  T4                   STORAGE      0.000    0.170     0  22:07           0        1.94      16.161
  T6                   STORAGE      0.000    1.956     0  20:56           0        12.3       7.380
  T3                   STORAGE      0.000    1.453     0  22:27           0        10.7      14.827
  T2                   STORAGE      0.000    0.453     0  21:07           0        3.29      27.003
  T1                   STORAGE      0.000    1.051     0  22:23           0        17.2       5.042
  
  
  **********************
  Node Surcharge Summary
  **********************
  
  Surcharging occurs when water rises above the top of the highest conduit.
  ---------------------------------------------------------------------
                                               Max. Height   Min. Depth
                                   Hours       Above Crown    Below Rim
  Node                 Type      Surcharged         Meters       Meters
  ---------------------------------------------------------------------
  CSO7                 JUNCTION        1.18          0.945        0.000
  CSO9                 JUNCTION        2.45          1.682        0.000
  CSO8                 JUNCTION        1.05          1.547        0.000
  CSO10                JUNCTION        0.34          0.560        0.000
  J4                   JUNCTION        1.06          0.858        0.842
  
  
  *********************
  Node Flooding Summary
  *********************
  
  Flooding refers to all water that overflows a node, whether it ponds or not.
  --------------------------------------------------------------------------
                                                             Total   Maximum
                                 Maximum   Time of Max       Flood    Ponded
                        Hours       Rate    Occurrence      Volume     Depth
  Node                 Flooded       CMS   days hr:min    10^6 ltr    Meters
  --------------------------------------------------------------------------
  CSO7                    0.20     0.007      0  21:16       0.002     0.000
  CSO9                    1.73     0.362      0  20:56       0.690     0.000
  CSO8                    0.46     0.184      0  22:16       0.106     0.000
  CSO10                   0.03     0.040      0  20:16       0.001     0.000
  T5                      2.49     0.219      0  22:17       1.180     0.000
  T6                      3.07     1.781      0  20:57       6.726     0.000
  T3                      1.28     1.263      0  22:27       1.876     0.000
  T1                      3.07     0.780      0  22:23       6.256     0.000
  
  
  **********************
  Storage Volume Summary
  **********************
  
  --------------------------------------------------------------------------------------------------
                         Average     Avg  Evap Exfil       Maximum     Max    Time of Max    Maximum
                          Volume    Pcnt  Pcnt  Pcnt        Volume    Pcnt     Occurrence    Outflow
  Storage Unit           1000 m3    Full  Loss  Loss       1000 m3    Full    days hr:min        CMS
  --------------------------------------------------------------------------------------------------
  T5                       0.114      23     0     0         0.500     100       0  21:10      0.039
  T4                       0.040       8     0     0         0.369      74       0  23:20      0.068
  T6                       0.102      17     0     0         0.600     100       0  20:36      0.175
  T3                       0.415      16     0     0         2.600     100       0  22:23      0.190
  T2                       0.075       8     0     0         0.726      73       0  23:19      0.119
  T1                       0.179      26     0     0         0.700     100       0  20:35      0.271
  
  
  ***********************
  Outfall Loading Summary
  ***********************
  
  -----------------------------------------------------------
                         Flow       Avg       Max       Total
                         Freq      Flow      Flow      Volume
  Outfall Node           Pcnt       CMS       CMS    10^6 ltr
  -----------------------------------------------------------
  Out_to_WWTP           99.43     0.111     0.271       9.414
  -----------------------------------------------------------
  System                99.43     0.111     0.271       9.414
  
  
  ********************
  Link Flow Summary
  ********************
  
  -----------------------------------------------------------------------------
                                 Maximum  Time of Max   Maximum    Max/    Max/
                                  |Flow|   Occurrence   |Veloc|    Full    Full
  Link                 Type          CMS  days hr:min     m/sec    Flow   Depth
  -----------------------------------------------------------------------------
  C1                   CONDUIT     0.039     0  21:58      0.87    0.01    0.12
  C6                   CONDUIT     0.071     0  22:07      1.28    1.12    0.73
  C2                   CONDUIT     0.068     0  23:23      1.35    0.08    0.24
  C9                   CONDUIT     0.127     0  21:35      1.22    0.43    0.69
  C16                  CONDUIT     0.488     0  22:17      1.78    0.05    0.15
  C3                   CONDUIT     0.190     0  22:25      2.02    0.07    0.18
  C19                  CONDUIT     0.119     0  23:20      1.01    0.04    0.24
  C11                  CONDUIT     0.297     0  23:24      1.54    0.01    0.13
  C20                  CONDUIT     0.655     0  20:17      2.95    0.02    0.13
  C22                  CONDUIT     0.188     0  20:22      1.53    0.09    0.31
  C12                  CONDUIT     0.175     0  21:41      1.06    0.01    0.31
  C17                  CONDUIT     0.907     0  22:17      2.79    0.04    0.34
  C10                  CONDUIT     1.956     0  20:56      2.03    0.20    0.65
  C13                  CONDUIT     1.453     0  22:27      0.88    0.09    0.77
  C18                  CONDUIT     0.453     0  21:07      1.99    0.02    0.54
  C23                  CONDUIT     1.051     0  22:23      0.92    0.12    0.62
  C4                   CONDUIT     0.307     0  20:17      1.13    0.07    0.59
  C7                   CONDUIT     0.170     0  22:07      1.04    0.04    0.57
  C14                  CONDUIT     0.271     0  20:37      2.08    0.02    0.09
  C5                   CONDUIT     0.074     0  21:11      1.44    1.26    1.00
  C8                   CONDUIT     0.127     0  21:35      2.05    1.60    0.86
  C15                  CONDUIT     0.486     0  22:28      3.51    1.55    0.83
  C21                  CONDUIT     0.201     0  20:21      1.85    1.15    0.68
  V4                   ORIFICE     0.068     0  23:20                      1.00
  V5                   ORIFICE     0.039     0  21:10                      1.00
  V1                   ORIFICE     0.271     0  20:35                      1.00
  V6                   ORIFICE     0.175     0  20:36                      1.00
  V3                   ORIFICE     0.190     0  22:23                      1.00
  V2                   ORIFICE     0.119     0  23:19                      1.00
  
  
  ***************************
  Flow Classification Summary
  ***************************
  
  -------------------------------------------------------------------------------------
                      Adjusted    ---------- Fraction of Time in Flow Class ---------- 
                       /Actual         Up    Down  Sub   Sup   Up    Down  Norm  Inlet 
  Conduit               Length    Dry  Dry   Dry   Crit  Crit  Crit  Crit  Ltd   Ctrl  
  -------------------------------------------------------------------------------------
  C1                      1.00   0.00  0.00  0.00  0.89  0.11  0.00  0.00  0.97  0.00
  C6                      1.00   0.00  0.00  0.00  0.06  0.94  0.00  0.00  0.00  0.00
  C2                      1.00   0.00  0.00  0.00  0.37  0.62  0.00  0.00  0.97  0.00
  C9                      1.00   0.00  0.00  0.00  1.00  0.00  0.00  0.00  1.00  0.00
  C16                     1.00   0.00  0.25  0.00  0.59  0.16  0.00  0.00  0.47  0.00
  C3                      1.00   0.00  0.00  0.00  0.04  0.96  0.00  0.00  0.07  0.00
  C19                     1.00   0.00  0.00  0.00  1.00  0.00  0.00  0.00  1.00  0.00
  C11                     1.00   0.00  0.00  0.00  0.13  0.87  0.00  0.00  1.00  0.00
  C20                     1.00   0.00  0.00  0.00  0.81  0.19  0.00  0.00  0.99  0.00
  C22                     1.00   0.00  0.00  0.00  0.95  0.05  0.00  0.00  1.00  0.00
  C12                     1.00   0.00  0.00  0.00  0.23  0.77  0.00  0.00  0.91  0.00
  C17                     1.00   0.00  0.00  0.00  0.51  0.49  0.00  0.00  0.99  0.00
  C10                     1.00   0.00  0.00  0.00  0.77  0.23  0.00  0.00  0.98  0.00
  C13                     1.00   0.00  0.00  0.00  0.76  0.24  0.00  0.00  0.85  0.00
  C18                     1.00   0.00  0.00  0.00  0.41  0.59  0.00  0.00  0.98  0.00
  C23                     1.00   0.00  0.00  0.00  0.80  0.20  0.00  0.00  0.96  0.00
  C4                      1.00   0.00  0.00  0.00  0.82  0.18  0.00  0.00  0.98  0.00
  C7                      1.00   0.00  0.00  0.00  0.73  0.27  0.00  0.00  0.83  0.00
  C14                     1.00   0.00  0.00  0.00  0.00  1.00  0.00  0.00  0.43  0.00
  C5                      1.00   0.00  0.00  0.00  0.95  0.05  0.00  0.00  0.93  0.00
  C8                      1.00   0.00  0.00  0.00  0.25  0.75  0.00  0.00  0.00  0.00
  C15                     1.00   0.25  0.03  0.00  0.03  0.69  0.00  0.00  0.06  0.00
  C21                     1.00   0.00  0.00  0.00  0.01  0.99  0.00  0.00  0.00  0.00
  
  
  *************************
  Conduit Surcharge Summary
  *************************
  
  ----------------------------------------------------------------------------
                                                           Hours        Hours 
                         --------- Hours Full --------   Above Full   Capacity
  Conduit                Both Ends  Upstream  Dnstream   Normal Flow   Limited
  ----------------------------------------------------------------------------
  C6                          0.01      1.06      0.01      0.70         0.01
  C10                         0.01      0.01      3.37      0.01         0.01
  C13                         0.01      0.01      2.78      0.01         0.01
  C18                         0.01      0.01      2.05      0.01         0.01
  C23                         0.01      0.01      3.57      0.01         0.01
  C4                          0.01      0.01      5.84      0.01         0.01
  C7                          0.01      0.01      2.35      0.01         0.01
  C5                          1.11      1.18      1.22      1.13         1.03
  C8                          0.01      2.45      0.01      2.49         0.01
  C15                         0.01      1.05      0.01      1.18         0.01
  C21                         0.01      0.34      0.01      0.23         0.01
  

  Analysis begun on:  Mon Sep 20 15:44:06 2021
  Analysis ended on:  Mon Sep 20 15:44:06 2021
  Total elapsed time: < 1 sec