
  EPA STORM WATER MANAGEMENT MODEL - VERSION 5.1 (Build 5.3.0.dev0)
  --------------------------------------------------------------

  WARNING 09: time series interval greater than recording interval for Rain Gage RG1
  WARNING 09: time series interval greater than recording interval for Rain Gage RG2
  WARNING 09: time series interval greater than recording interval for Rain Gage RG3
  WARNING 09: time series interval greater than recording interval for Rain Gage RG4
  
  *********************************************************
  NOTE: The summary statistics displayed in this report are
  based on results found at every computational time step,  
  not just on results from each reporting time step.
  *********************************************************
  
  ****************
  Analysis Options
  ****************
  Flow Units ............... CMS
  Process Models:
    Rainfall/Runoff ........ YES
    RDII ................... NO
    Snowmelt ............... NO
    Groundwater ............ NO
    Flow Routing ........... YES
    Ponding Allowed ........ YES
    Water Quality .......... NO
  Infiltration Method ...... HORTON
  Flow Routing Method ...... DYNWAVE
  Surcharge Method ......... EXTRAN
  Starting Date ............ 08/28/2015 00:00:00
  Ending Date .............. 08/28/2015 23:40:00
  Antecedent Dry Days ...... 0.0
  Report Time Step ......... 00:01:00
  Wet Time Step ............ 00:01:00
  Dry Time Step ............ 00:01:00
  Routing Time Step ........ 5.00 sec
  Variable Time Step ....... YES
  Maximum Trials ........... 8
  Number of Threads ........ 1
  Head Tolerance ........... 0.001500 m
  
  
  **************************        Volume         Depth
  Runoff Quantity Continuity     hectare-m            mm
  **************************     ---------       -------
  Total Precipitation ......         2.109        11.702
  Evaporation Loss .........         0.000         0.000
  Infiltration Loss ........         0.000         0.000
  Surface Runoff ...........         2.074        11.508
  Final Storage ............         0.036         0.199
  Continuity Error (%) .....        -0.046
  
  
  **************************        Volume        Volume
  Flow Routing Continuity        hectare-m      10^6 ltr
  **************************     ---------     ---------
  Dry Weather Inflow .......         0.758         7.576
  Wet Weather Inflow .......         2.074        20.736
  Groundwater Inflow .......         0.000         0.000
  RDII Inflow ..............         0.000         0.000
  External Inflow ..........         0.000         0.000
  External Outflow .........         1.935        19.352
  Flooding Loss ............         0.349         3.494
  Evaporation Loss .........         0.000         0.000
  Exfiltration Loss ........         0.000         0.000
  Initial Stored Volume ....         0.000         0.000
  Final Stored Volume ......         0.424         4.236
  Continuity Error (%) .....         4.344
  
  
  *************************
  Highest Continuity Errors
  *************************
  Node T2 (11.68%)
  Node T5 (11.07%)
  Node T4 (8.18%)
  Node T1 (3.48%)
  Node T3 (3.33%)
  
  
  ***************************
  Time-Step Critical Elements
  ***************************
  None
  
  
  ********************************
  Highest Flow Instability Indexes
  ********************************
  Link C18 (1)
  
  
  *************************
  Routing Time Step Summary
  *************************
  Minimum Time Step           :     1.24 sec
  Average Time Step           :     5.00 sec
  Maximum Time Step           :     5.00 sec
  Percent in Steady State     :     0.00
  Average Iterations per Step :     2.12
  Percent Not Converging      :     1.22
  
  
  ***************************
  Subcatchment Runoff Summary
  ***************************
  
  ------------------------------------------------------------------------------------------------------------------------------
                            Total      Total      Total      Total     Imperv       Perv      Total       Total     Peak  Runoff
                           Precip      Runon       Evap      Infil     Runoff     Runoff     Runoff      Runoff   Runoff   Coeff
  Subcatchment                 mm         mm         mm         mm         mm         mm         mm    10^6 ltr      CMS
  ------------------------------------------------------------------------------------------------------------------------------
  SC01                       9.55       0.00       0.00       0.00       9.40       0.00       9.40        3.10     0.14   0.985
  SC02                      24.35       0.00       0.00       0.00      24.14       0.00      24.14        5.49     0.45   0.991
  SC03                       8.60       0.00       0.00       0.00       8.53       0.00       8.53        1.54     0.13   0.992
  SC04                      24.35       0.00       0.00       0.00      23.76       0.00      23.76        1.64     0.11   0.976
  SC05                       9.55       0.00       0.00       0.00       9.39       0.00       9.39        1.46     0.06   0.983
  SC06                       7.58       0.00       0.00       0.00       7.35       0.00       7.35        2.39     0.12   0.969
  SC07                      24.35       0.00       0.00       0.00      23.77       0.00      23.77        1.13     0.07   0.976
  SC08                       8.60       0.00       0.00       0.00       8.48       0.00       8.48        2.37     0.17   0.986
  SC09                       7.58       0.00       0.00       0.00       7.42       0.00       7.42        0.51     0.03   0.979
  SC010                      9.55       0.00       0.00       0.00       9.35       0.00       9.35        1.10     0.05   0.979
  
  
  ******************
  Node Depth Summary
  ******************
  
  ---------------------------------------------------------------------------------
                                 Average  Maximum  Maximum  Time of Max    Reported
                                   Depth    Depth      HGL   Occurrence   Max Depth
  Node                 Type       Meters   Meters   Meters  days hr:min      Meters
  ---------------------------------------------------------------------------------
  J1                   JUNCTION     0.06     0.09    34.09     0  04:07        0.09
  J3                   JUNCTION     0.12     0.15    18.15     0  21:00        0.15
  CSO7                 JUNCTION     0.12     1.20    35.20     0  20:22        1.20
  J5                   JUNCTION     0.06     0.14    32.14     0  21:57        0.14
  CSO9                 JUNCTION     0.08     0.14    40.14     0  03:12        0.14
  J8                   JUNCTION     0.08     0.13    36.13     0  03:32        0.13
  CSO8                 JUNCTION     0.10     0.25    32.25     0  02:51        0.24
  J10                  JUNCTION     0.07     0.16    29.16     0  02:57        0.16
  J13                  JUNCTION     0.07     0.17    29.17     0  21:41        0.17
  J15                  JUNCTION     0.18     0.23    15.23     0  19:48        0.23
  J16                  JUNCTION     0.06     0.09    30.09     0  04:07        0.09
  CSO10                JUNCTION     0.09     0.17    30.17     0  04:06        0.17
  J12                  JUNCTION     0.12     0.19    26.19     0  03:03        0.19
  J4                   JUNCTION     0.13     1.00    34.00     0  20:22        0.76
  J6                   JUNCTION     0.07     0.12    25.12     0  22:18        0.12
  J2                   JUNCTION     0.06     0.07    25.07     0  22:00        0.07
  J19                  JUNCTION     0.15     0.17     8.17     0  17:43        0.17
  J9                   JUNCTION     0.10     0.12    29.12     0  05:16        0.12
  J14                  JUNCTION     0.14     0.16    20.16     0  09:30        0.16
  J17                  JUNCTION     0.09     0.15    20.15     0  22:20        0.15
  J7                   JUNCTION     0.06     0.10    39.10     0  03:13        0.10
  J11                  JUNCTION     0.08     0.17    31.17     0  02:58        0.17
  J18                  JUNCTION     0.05     0.08    29.08     0  04:08        0.08
  Out_to_WWTP          OUTFALL      0.15     0.17     6.17     0  17:41        0.17
  T5                   STORAGE      1.96     3.33    30.33     0  21:58        3.33
  T4                   STORAGE      1.24     5.00    32.00     0  21:48        5.00
  T6                   STORAGE      0.69     1.52    32.52     0  05:14        1.52
  T3                   STORAGE      1.80     2.38    24.38     0  09:28        2.38
  T2                   STORAGE      1.19     5.00    26.00     0  21:48        5.00
  T1                   STORAGE      3.87     5.00    15.00     0  07:07        5.00
  
  
  *******************
  Node Inflow Summary
  *******************
  
  -------------------------------------------------------------------------------------------------
                                  Maximum  Maximum                  Lateral       Total        Flow
                                  Lateral    Total  Time of Max      Inflow      Inflow     Balance
                                   Inflow   Inflow   Occurrence      Volume      Volume       Error
  Node                 Type           CMS      CMS  days hr:min    10^6 ltr    10^6 ltr     Percent
  -------------------------------------------------------------------------------------------------
  J1                   JUNCTION     0.071    0.071     0  04:06        2.56        2.56      -0.021
  J3                   JUNCTION     0.000    0.222     0  20:57           0          14       0.273
  CSO7                 JUNCTION     0.078    0.078     0  21:56        1.69        1.69       0.022
  J5                   JUNCTION     0.108    0.179     0  21:56        1.89        3.58       0.045
  CSO9                 JUNCTION     0.029    0.029     0  03:11       0.894       0.894       0.017
  J8                   JUNCTION     0.125    0.151     0  03:31        4.22        5.12       0.008
  CSO8                 JUNCTION     0.167    0.167     0  02:51        2.82        2.82       0.002
  J10                  JUNCTION     0.135    0.274     0  02:56        2.29        5.11       0.005
  J13                  JUNCTION     0.458    0.458     0  21:36         6.4         6.4      -0.087
  J15                  JUNCTION     0.000    0.476     0  19:42           0        24.1       0.460
  J16                  JUNCTION     0.143    0.143     0  04:06        4.18        4.18      -0.017
  CSO10                JUNCTION     0.048    0.048     0  04:06        1.37        1.37       0.025
  J12                  JUNCTION     0.000    0.312     0  02:58           0        10.2      -0.020
  J4                   JUNCTION     0.000    0.076     0  21:41           0        1.69       0.127
  J6                   JUNCTION     0.000    0.080     0  21:48           0        2.74       0.294
  J2                   JUNCTION     0.000    0.032     0  21:58           0           2       0.237
  J19                  JUNCTION     0.000    0.271     0  07:07           0        19.4       0.065
  J9                   JUNCTION     0.000    0.096     0  05:14           0         5.1       0.113
  J14                  JUNCTION     0.000    0.130     0  09:28           0        9.26       0.062
  J17                  JUNCTION     0.000    0.140     0  21:48           0        4.59       0.325
  J7                   JUNCTION     0.000    0.028     0  03:12           0       0.894       0.141
  J11                  JUNCTION     0.000    0.166     0  02:51           0        2.82       0.056
  J18                  JUNCTION     0.000    0.047     0  04:07           0        1.37       0.048
  Out_to_WWTP          OUTFALL      0.000    0.271     0  17:44           0        19.4       0.000
  T5                   STORAGE      0.000    0.067     0  04:07           0        2.56      12.444
  T4                   STORAGE      0.000    0.172     0  21:57           0        3.58       8.905
  T6                   STORAGE      0.000    0.146     0  03:32           0        5.11       0.105
  T3                   STORAGE      0.000    0.306     0  03:03           0        10.2       3.445
  T2                   STORAGE      0.000    0.421     0  21:41           0        6.41      13.228
  T1                   STORAGE      0.000    0.471     0  19:48           0        23.9       3.600
  
  
  **********************
  Node Surcharge Summary
  **********************
  
  Surcharging occurs when water rises above the top of the highest conduit.
  ---------------------------------------------------------------------
                                               Max. Height   Min. Depth
                                   Hours       Above Crown    Below Rim
  Node                 Type      Surcharged         Meters       Meters
  ---------------------------------------------------------------------
  CSO7                 JUNCTION        0.87          0.945        0.000
  J4                   JUNCTION        0.73          0.701        0.999
  
  
  *********************
  Node Flooding Summary
  *********************
  
  Flooding refers to all water that overflows a node, whether it ponds or not.
  --------------------------------------------------------------------------
                                                             Total   Maximum
                                 Maximum   Time of Max       Flood    Ponded
                        Hours       Rate    Occurrence      Volume     Depth
  Node                 Flooded       CMS   days hr:min    10^6 ltr    Meters
  --------------------------------------------------------------------------
  CSO7                    0.13     0.007      0  21:56       0.001     0.000
  T4                      0.70     0.092      0  21:57       0.151     0.000
  T2                      0.58     0.242      0  21:56       0.297     0.000
  T1                      6.23     0.200      0  19:48       3.045     0.000
  
  
  **********************
  Storage Volume Summary
  **********************
  
  --------------------------------------------------------------------------------------------------
                         Average     Avg  Evap Exfil       Maximum     Max    Time of Max    Maximum
                          Volume    Pcnt  Pcnt  Pcnt        Volume    Pcnt     Occurrence    Outflow
  Storage Unit           1000 m3    Full  Loss  Loss       1000 m3    Full    days hr:min        CMS
  --------------------------------------------------------------------------------------------------
  T5                       0.196      39     0     0         0.333      67       0  21:58      0.032
  T4                       0.124      25     0     0         0.500     100       0  21:48      0.080
  T6                       0.083      14     0     0         0.183      30       0  05:14      0.096
  T3                       0.937      36     0     0         1.238      48       0  09:28      0.130
  T2                       0.237      24     0     0         1.000     100       0  21:48      0.140
  T1                       0.542      77     0     0         0.700     100       0  07:07      0.271
  
  
  ***********************
  Outfall Loading Summary
  ***********************
  
  -----------------------------------------------------------
                         Flow       Avg       Max       Total
                         Freq      Flow      Flow      Volume
  Outfall Node           Pcnt       CMS       CMS    10^6 ltr
  -----------------------------------------------------------
  Out_to_WWTP           99.45     0.228     0.271      19.352
  -----------------------------------------------------------
  System                99.45     0.228     0.271      19.352
  
  
  ********************
  Link Flow Summary
  ********************
  
  -----------------------------------------------------------------------------
                                 Maximum  Time of Max   Maximum    Max/    Max/
                                  |Flow|   Occurrence   |Veloc|    Full    Full
  Link                 Type          CMS  days hr:min     m/sec    Flow   Depth
  -----------------------------------------------------------------------------
  C1                   CONDUIT     0.032     0  22:00      0.75    0.01    0.11
  C6                   CONDUIT     0.071     0  21:57      1.28    1.12    0.73
  C2                   CONDUIT     0.080     0  22:18      1.70    0.09    0.22
  C9                   CONDUIT     0.027     0  03:13      0.81    0.09    0.23
  C16                  CONDUIT     0.154     0  02:58      1.24    0.01    0.08
  C3                   CONDUIT     0.130     0  09:28      1.87    0.05    0.14
  C19                  CONDUIT     0.140     0  22:20      1.44    0.05    0.19
  C11                  CONDUIT     0.222     0  21:00      1.65    0.01    0.09
  C20                  CONDUIT     0.134     0  04:07      1.33    0.00    0.08
  C22                  CONDUIT     0.045     0  04:08      0.75    0.02    0.19
  C12                  CONDUIT     0.096     0  05:16      1.18    0.01    0.07
  C17                  CONDUIT     0.263     0  02:57      2.02    0.01    0.09
  C10                  CONDUIT     0.146     0  03:32      1.00    0.02    0.54
  C13                  CONDUIT     0.306     0  03:03      1.40    0.02    0.54
  C18                  CONDUIT     0.421     0  21:41      1.02    0.02    0.54
  C23                  CONDUIT     0.471     0  19:48      1.11    0.05    0.58
  C4                   CONDUIT     0.067     0  04:07      1.17    0.02    0.54
  C7                   CONDUIT     0.172     0  21:57      0.90    0.04    0.57
  C14                  CONDUIT     0.271     0  17:44      2.08    0.02    0.09
  C5                   CONDUIT     0.076     0  21:41      1.47    1.29    1.00
  C8                   CONDUIT     0.028     0  03:12      1.04    0.36    0.38
  C15                  CONDUIT     0.166     0  02:51      2.35    0.53    0.46
  C21                  CONDUIT     0.047     0  04:07      1.32    0.27    0.28
  V4                   ORIFICE     0.080     0  21:48                      1.00
  V5                   ORIFICE     0.032     0  21:58                      1.00
  V1                   ORIFICE     0.271     0  07:07                      1.00
  V6                   ORIFICE     0.096     0  05:14                      1.00
  V3                   ORIFICE     0.130     0  09:28                      1.00
  V2                   ORIFICE     0.140     0  21:48                      1.00
  
  
  ***************************
  Flow Classification Summary
  ***************************
  
  -------------------------------------------------------------------------------------
                      Adjusted    ---------- Fraction of Time in Flow Class ---------- 
                       /Actual         Up    Down  Sub   Sup   Up    Down  Norm  Inlet 
  Conduit               Length    Dry  Dry   Dry   Crit  Crit  Crit  Crit  Ltd   Ctrl  
  -------------------------------------------------------------------------------------
  C1                      1.00   0.00  0.00  0.00  0.96  0.04  0.00  0.00  0.97  0.00
  C6                      1.00   0.00  0.00  0.00  0.06  0.94  0.00  0.00  0.00  0.00
  C2                      1.00   0.00  0.00  0.00  0.54  0.46  0.00  0.00  0.99  0.00
  C9                      1.00   0.00  0.00  0.00  1.00  0.00  0.00  0.00  1.00  0.00
  C16                     1.00   0.00  0.00  0.00  0.46  0.54  0.00  0.00  0.42  0.00
  C3                      1.00   0.00  0.00  0.00  0.02  0.98  0.00  0.00  0.18  0.00
  C19                     1.00   0.00  0.00  0.00  0.79  0.21  0.00  0.00  1.00  0.00
  C11                     1.00   0.00  0.00  0.00  0.03  0.96  0.00  0.00  1.00  0.00
  C20                     1.00   0.00  0.00  0.00  0.80  0.20  0.00  0.00  0.99  0.00
  C22                     1.00   0.00  0.00  0.00  1.00  0.00  0.00  0.00  1.00  0.00
  C12                     1.00   0.00  0.00  0.00  0.23  0.77  0.00  0.00  1.00  0.00
  C17                     1.00   0.00  0.00  0.00  0.29  0.71  0.00  0.00  0.98  0.00
  C10                     1.00   0.00  0.00  0.00  0.94  0.06  0.00  0.00  0.98  0.00
  C13                     1.00   0.00  0.00  0.00  0.95  0.05  0.00  0.00  0.96  0.00
  C18                     1.00   0.00  0.00  0.00  0.91  0.09  0.00  0.00  0.97  0.00
  C23                     1.00   0.00  0.00  0.00  0.95  0.05  0.00  0.00  0.97  0.00
  C4                      1.00   0.00  0.00  0.00  0.97  0.03  0.00  0.00  0.98  0.00
  C7                      1.00   0.00  0.00  0.00  0.89  0.11  0.00  0.00  0.95  0.00
  C14                     1.00   0.00  0.00  0.00  0.00  1.00  0.00  0.00  0.21  0.00
  C5                      1.00   0.00  0.00  0.00  0.90  0.10  0.00  0.00  0.95  0.00
  C8                      1.00   0.00  0.00  0.00  0.07  0.93  0.00  0.00  0.00  0.00
  C15                     1.00   0.00  0.00  0.00  0.00  1.00  0.00  0.00  0.00  0.00
  C21                     1.00   0.00  0.00  0.00  0.00  1.00  0.00  0.00  0.00  0.00
  
  
  *************************
  Conduit Surcharge Summary
  *************************
  
  ----------------------------------------------------------------------------
                                                           Hours        Hours 
                         --------- Hours Full --------   Above Full   Capacity
  Conduit                Both Ends  Upstream  Dnstream   Normal Flow   Limited
  ----------------------------------------------------------------------------
  C6                          0.01      0.73      0.01      0.38         0.01
  C10                         0.01      0.01      0.39      0.01         0.01
  C13                         0.01      0.01     14.04      0.01         0.01
  C18                         0.01      0.01      5.45      0.01         0.01
  C23                         0.01      0.01     20.56      0.01         0.01
  C4                          0.01      0.01     20.17      0.01         0.01
  C7                          0.01      0.01      6.43      0.01         0.01
  C5                          0.81      0.87      1.06      0.91         0.71
  

  Analysis begun on:  Mon Sep 20 15:48:23 2021
  Analysis ended on:  Mon Sep 20 15:48:24 2021
  Total elapsed time: 00:00:01