
  EPA STORM WATER MANAGEMENT MODEL - VERSION 5.1 (Build 5.3.0.dev0)
  --------------------------------------------------------------

  WARNING 09: time series interval greater than recording interval for Rain Gage RG1
  WARNING 09: time series interval greater than recording interval for Rain Gage RG2
  WARNING 09: time series interval greater than recording interval for Rain Gage RG3
  WARNING 09: time series interval greater than recording interval for Rain Gage RG4
  
  *********************************************************
  NOTE: The summary statistics displayed in this report are
  based on results found at every computational time step,  
  not just on results from each reporting time step.
  *********************************************************
  
  ****************
  Analysis Options
  ****************
  Flow Units ............... CMS
  Process Models:
    Rainfall/Runoff ........ YES
    RDII ................... NO
    Snowmelt ............... NO
    Groundwater ............ NO
    Flow Routing ........... YES
    Ponding Allowed ........ YES
    Water Quality .......... NO
  Infiltration Method ...... HORTON
  Flow Routing Method ...... DYNWAVE
  Surcharge Method ......... EXTRAN
  Starting Date ............ 08/28/2015 00:00:00
  Ending Date .............. 08/28/2015 23:40:00
  Antecedent Dry Days ...... 0.0
  Report Time Step ......... 00:01:00
  Wet Time Step ............ 00:01:00
  Dry Time Step ............ 00:01:00
  Routing Time Step ........ 5.00 sec
  Variable Time Step ....... YES
  Maximum Trials ........... 8
  Number of Threads ........ 1
  Head Tolerance ........... 0.001500 m
  
  
  **************************        Volume         Depth
  Runoff Quantity Continuity     hectare-m            mm
  **************************     ---------       -------
  Total Precipitation ......         1.932        10.719
  Evaporation Loss .........         0.000         0.000
  Infiltration Loss ........         0.000         0.000
  Surface Runoff ...........         1.728         9.592
  Final Storage ............         0.208         1.155
  Continuity Error (%) .....        -0.258
  
  
  **************************        Volume        Volume
  Flow Routing Continuity        hectare-m      10^6 ltr
  **************************     ---------     ---------
  Dry Weather Inflow .......         0.758         7.576
  Wet Weather Inflow .......         1.725        17.251
  Groundwater Inflow .......         0.000         0.000
  RDII Inflow ..............         0.000         0.000
  External Inflow ..........         0.000         0.000
  External Outflow .........         0.974         9.736
  Flooding Loss ............         0.389         3.893
  Evaporation Loss .........         0.000         0.000
  Exfiltration Loss ........         0.000         0.000
  Initial Stored Volume ....         0.000         0.000
  Final Stored Volume ......         0.853         8.531
  Continuity Error (%) .....        10.742
  
  
  *************************
  Highest Continuity Errors
  *************************
  Node T5 (21.50%)
  Node T2 (20.42%)
  Node T6 (14.97%)
  Node T3 (14.32%)
  Node T4 (13.43%)
  
  
  ***************************
  Time-Step Critical Elements
  ***************************
  None
  
  
  ********************************
  Highest Flow Instability Indexes
  ********************************
  All links are stable.
  
  
  *************************
  Routing Time Step Summary
  *************************
  Minimum Time Step           :     4.50 sec
  Average Time Step           :     5.00 sec
  Maximum Time Step           :     5.00 sec
  Percent in Steady State     :     0.00
  Average Iterations per Step :     2.13
  Percent Not Converging      :     0.56
  
  
  ***************************
  Subcatchment Runoff Summary
  ***************************
  
  ------------------------------------------------------------------------------------------------------------------------------
                            Total      Total      Total      Total     Imperv       Perv      Total       Total     Peak  Runoff
                           Precip      Runon       Evap      Infil     Runoff     Runoff     Runoff      Runoff   Runoff   Coeff
  Subcatchment                 mm         mm         mm         mm         mm         mm         mm    10^6 ltr      CMS
  ------------------------------------------------------------------------------------------------------------------------------
  SC01                       8.77       0.00       0.00       0.00       7.94       0.00       7.94        2.62     0.43   0.905
  SC02                      13.16       0.00       0.00       0.00      12.17       0.00      12.17        2.77     0.49   0.925
  SC03                      13.80       0.00       0.00       0.00      13.30       0.00      13.30        2.39     0.66   0.964
  SC04                      13.16       0.00       0.00       0.00      11.33       0.00      11.33        0.78     0.10   0.861
  SC05                       8.77       0.00       0.00       0.00       7.87       0.00       7.87        1.23     0.20   0.898
  SC06                       7.98       0.00       0.00       0.00       6.15       0.00       6.15        2.00     0.26   0.770
  SC07                      13.16       0.00       0.00       0.00      11.34       0.00      11.34        0.54     0.07   0.862
  SC08                      13.80       0.00       0.00       0.00      12.81       0.00      12.81        3.59     0.60   0.929
  SC09                       7.98       0.00       0.00       0.00       6.67       0.00       6.67        0.46     0.07   0.836
  SC010                      8.77       0.00       0.00       0.00       7.69       0.00       7.69        0.90     0.14   0.877
  
  
  ******************
  Node Depth Summary
  ******************
  
  ---------------------------------------------------------------------------------
                                 Average  Maximum  Maximum  Time of Max    Reported
                                   Depth    Depth      HGL   Occurrence   Max Depth
  Node                 Type       Meters   Meters   Meters  days hr:min      Meters
  ---------------------------------------------------------------------------------
  J1                   JUNCTION     0.05     0.15    34.15     0  21:27        0.15
  J3                   JUNCTION     0.09     0.17    18.17     0  23:40        0.17
  CSO7                 JUNCTION     0.08     1.20    35.20     0  21:25        1.20
  J5                   JUNCTION     0.05     0.14    32.14     0  21:27        0.14
  CSO9                 JUNCTION     0.07     0.25    40.25     0  21:12        0.25
  J8                   JUNCTION     0.07     0.18    36.18     0  21:17        0.18
  CSO8                 JUNCTION     0.12     2.00    34.00     0  19:40        2.00
  J10                  JUNCTION     0.07     0.29    29.29     0  21:12        0.29
  J13                  JUNCTION     0.05     0.18    29.18     0  21:16        0.18
  J15                  JUNCTION     0.13     0.30    15.30     0  21:29        0.30
  J16                  JUNCTION     0.04     0.16    30.16     0  21:27        0.16
  CSO10                JUNCTION     0.07     0.31    30.31     0  21:26        0.31
  J12                  JUNCTION     0.14     1.03    27.03     0  23:03        1.03
  J4                   JUNCTION     0.09     0.80    33.80     0  21:25        0.79
  J6                   JUNCTION     0.05     0.11    25.11     0  23:40        0.11
  J2                   JUNCTION     0.05     0.08    25.08     0  23:40        0.08
  J19                  JUNCTION     0.11     0.17     8.17     0  21:24        0.17
  J9                   JUNCTION     0.07     0.15    29.15     0  23:40        0.15
  J14                  JUNCTION     0.10     0.19    20.19     0  23:04        0.19
  J17                  JUNCTION     0.06     0.14    20.14     0  23:40        0.14
  J7                   JUNCTION     0.05     0.16    39.16     0  21:18        0.16
  J11                  JUNCTION     0.06     0.29    31.29     0  21:23        0.29
  J18                  JUNCTION     0.03     0.13    29.13     0  21:28        0.13
  Out_to_WWTP          OUTFALL      0.10     0.17     6.17     0  21:23        0.17
  T5                   STORAGE      1.02     5.00    32.00     0  23:30        5.00
  T4                   STORAGE      0.45     3.83    30.83     0  23:40        3.83
  T6                   STORAGE      0.49     4.03    35.03     0  23:40        4.03
  T3                   STORAGE      0.86     5.00    27.00     0  23:03        5.00
  T2                   STORAGE      0.43     3.86    24.86     0  23:40        3.86
  T1                   STORAGE      1.33     5.00    15.00     0  21:23        5.00
  
  
  *******************
  Node Inflow Summary
  *******************
  
  -------------------------------------------------------------------------------------------------
                                  Maximum  Maximum                  Lateral       Total        Flow
                                  Lateral    Total  Time of Max      Inflow      Inflow     Balance
                                   Inflow   Inflow   Occurrence      Volume      Volume       Error
  Node                 Type           CMS      CMS  days hr:min    10^6 ltr    10^6 ltr     Percent
  -------------------------------------------------------------------------------------------------
  J1                   JUNCTION     0.207    0.207     0  21:26        2.32        2.32       0.327
  J3                   JUNCTION     0.000    0.298     0  23:40           0        7.74       0.667
  CSO7                 JUNCTION     0.075    0.075     0  21:26         1.1         1.1       0.151
  J5                   JUNCTION     0.104    0.174     0  21:26        1.03        2.12       0.442
  CSO9                 JUNCTION     0.073    0.073     0  21:11       0.841       0.841       0.241
  J8                   JUNCTION     0.274    0.324     0  21:16        3.83        4.65       0.698
  CSO8                 JUNCTION     0.601    0.601     0  21:06        4.03        4.03       0.067
  J10                  JUNCTION     0.666    0.990     0  21:11        3.14        7.09       0.429
  J13                  JUNCTION     0.496    0.496     0  21:16        3.67        3.67       0.166
  J15                  JUNCTION     0.000    0.838     0  21:27           0        14.7       1.308
  J16                  JUNCTION     0.440    0.440     0  21:26        3.69        3.69       0.364
  CSO10                JUNCTION     0.139    0.139     0  21:26        1.17        1.17       0.269
  J12                  JUNCTION     0.000    1.001     0  21:12           0        10.5       8.557
  J4                   JUNCTION     0.000    0.073     0  21:21           0         1.1       0.969
  J6                   JUNCTION     0.000    0.070     0  23:40           0        1.44       0.547
  J2                   JUNCTION     0.000    0.039     0  23:30           0        1.28       0.468
  J19                  JUNCTION     0.000    0.271     0  21:23           0        9.75       0.130
  J9                   JUNCTION     0.000    0.157     0  23:40           0        3.44       0.907
  J14                  JUNCTION     0.000    0.190     0  23:03           0        5.04       0.198
  J17                  JUNCTION     0.000    0.123     0  23:40           0        2.15       0.695
  J7                   JUNCTION     0.000    0.070     0  21:12           0       0.839       1.515
  J11                  JUNCTION     0.000    0.486     0  21:23           0        3.99       0.885
  J18                  JUNCTION     0.000    0.132     0  21:27           0        1.17       1.001
  Out_to_WWTP          OUTFALL      0.000    0.271     0  21:25           0        9.74       0.000
  T5                   STORAGE      0.000    0.192     0  21:27           0        2.31      27.382
  T4                   STORAGE      0.000    0.167     0  21:27           0        2.11      15.511
  T6                   STORAGE      0.000    0.313     0  21:17           0        4.62      17.606
  T3                   STORAGE      0.000    0.939     0  21:18           0        9.65      16.718
  T2                   STORAGE      0.000    0.457     0  21:16           0        3.67      25.653
  T1                   STORAGE      0.000    0.796     0  21:29           0        14.5       6.088
  
  
  **********************
  Node Surcharge Summary
  **********************
  
  Surcharging occurs when water rises above the top of the highest conduit.
  ---------------------------------------------------------------------
                                               Max. Height   Min. Depth
                                   Hours       Above Crown    Below Rim
  Node                 Type      Surcharged         Meters       Meters
  ---------------------------------------------------------------------
  CSO7                 JUNCTION        0.39          0.945        0.000
  CSO8                 JUNCTION        0.96          1.547        0.000
  J4                   JUNCTION        0.35          0.503        1.197
  
  
  *********************
  Node Flooding Summary
  *********************
  
  Flooding refers to all water that overflows a node, whether it ponds or not.
  --------------------------------------------------------------------------
                                                             Total   Maximum
                                 Maximum   Time of Max       Flood    Ponded
                        Hours       Rate    Occurrence      Volume     Depth
  Node                 Flooded       CMS   days hr:min    10^6 ltr    Meters
  --------------------------------------------------------------------------
  CSO7                    0.03     0.005      0  21:26       0.000     0.000
  CSO8                    0.26     0.146      0  21:06       0.042     0.000
  T5                      0.16     0.080      0  23:32       0.039     0.000
  T3                      0.61     0.484      0  23:06       0.628     0.000
  T1                      2.28     0.525      0  21:29       3.186     0.000
  
  
  **********************
  Storage Volume Summary
  **********************
  
  --------------------------------------------------------------------------------------------------
                         Average     Avg  Evap Exfil       Maximum     Max    Time of Max    Maximum
                          Volume    Pcnt  Pcnt  Pcnt        Volume    Pcnt     Occurrence    Outflow
  Storage Unit           1000 m3    Full  Loss  Loss       1000 m3    Full    days hr:min        CMS
  --------------------------------------------------------------------------------------------------
  T5                       0.102      20     0     0         0.500     100       0  23:30      0.039
  T4                       0.045       9     0     0         0.383      77       0  23:40      0.070
  T6                       0.059      10     0     0         0.484      81       0  23:40      0.157
  T3                       0.447      17     0     0         2.600     100       0  23:03      0.190
  T2                       0.085       9     0     0         0.772      77       0  23:40      0.123
  T1                       0.186      27     0     0         0.700     100       0  21:23      0.271
  
  
  ***********************
  Outfall Loading Summary
  ***********************
  
  -----------------------------------------------------------
                         Flow       Avg       Max       Total
                         Freq      Flow      Flow      Volume
  Outfall Node           Pcnt       CMS       CMS    10^6 ltr
  -----------------------------------------------------------
  Out_to_WWTP           99.43     0.115     0.271       9.736
  -----------------------------------------------------------
  System                99.43     0.115     0.271       9.736
  
  
  ********************
  Link Flow Summary
  ********************
  
  -----------------------------------------------------------------------------
                                 Maximum  Time of Max   Maximum    Max/    Max/
                                  |Flow|   Occurrence   |Veloc|    Full    Full
  Link                 Type          CMS  days hr:min     m/sec    Flow   Depth
  -----------------------------------------------------------------------------
  C1                   CONDUIT     0.039     0  23:40      0.70    0.01    0.12
  C6                   CONDUIT     0.070     0  21:27      1.28    1.12    0.73
  C2                   CONDUIT     0.070     0  23:40      1.36    0.08    0.24
  C9                   CONDUIT     0.064     0  21:18      1.07    0.22    0.34
  C16                  CONDUIT     0.480     0  21:18      1.76    0.05    0.15
  C3                   CONDUIT     0.190     0  23:05      2.03    0.07    0.18
  C19                  CONDUIT     0.123     0  23:40      1.03    0.04    0.21
  C11                  CONDUIT     0.298     0  23:40      1.59    0.01    0.11
  C20                  CONDUIT     0.406     0  21:27      2.13    0.01    0.11
  C22                  CONDUIT     0.124     0  21:28      1.15    0.06    0.27
  C12                  CONDUIT     0.156     0  23:40      0.90    0.01    0.29
  C17                  CONDUIT     0.922     0  21:12      3.26    0.05    0.30
  C10                  CONDUIT     0.313     0  21:17      0.94    0.03    0.56
  C13                  CONDUIT     0.939     0  21:18      1.19    0.06    0.76
  C18                  CONDUIT     0.457     0  21:16      2.15    0.02    0.54
  C23                  CONDUIT     0.796     0  21:29      0.86    0.09    0.60
  C4                   CONDUIT     0.192     0  21:27      1.13    0.05    0.57
  C7                   CONDUIT     0.167     0  21:27      0.95    0.04    0.57
  C14                  CONDUIT     0.271     0  21:25      2.08    0.02    0.09
  C5                   CONDUIT     0.073     0  21:21      1.44    1.25    1.00
  C8                   CONDUIT     0.070     0  21:12      1.38    0.88    0.62
  C15                  CONDUIT     0.486     0  21:23      3.63    1.54    0.83
  C21                  CONDUIT     0.132     0  21:27      1.74    0.76    0.50
  V4                   ORIFICE     0.070     0  23:40                      1.00
  V5                   ORIFICE     0.039     0  23:30                      1.00
  V1                   ORIFICE     0.271     0  21:23                      1.00
  V6                   ORIFICE     0.157     0  23:40                      1.00
  V3                   ORIFICE     0.190     0  23:03                      1.00
  V2                   ORIFICE     0.123     0  23:40                      1.00
  
  
  ***************************
  Flow Classification Summary
  ***************************
  
  -------------------------------------------------------------------------------------
                      Adjusted    ---------- Fraction of Time in Flow Class ---------- 
                       /Actual         Up    Down  Sub   Sup   Up    Down  Norm  Inlet 
  Conduit               Length    Dry  Dry   Dry   Crit  Crit  Crit  Crit  Ltd   Ctrl  
  -------------------------------------------------------------------------------------
  C1                      1.00   0.00  0.00  0.00  0.93  0.07  0.00  0.00  0.97  0.00
  C6                      1.00   0.00  0.00  0.00  0.03  0.97  0.00  0.00  0.00  0.00
  C2                      1.00   0.00  0.00  0.00  0.29  0.70  0.00  0.00  0.97  0.00
  C9                      1.00   0.00  0.00  0.00  1.00  0.00  0.00  0.00  1.00  0.00
  C16                     1.00   0.00  0.25  0.00  0.58  0.17  0.00  0.00  0.42  0.00
  C3                      1.00   0.00  0.00  0.00  0.04  0.96  0.00  0.00  0.07  0.00
  C19                     1.00   0.00  0.00  0.00  1.00  0.00  0.00  0.00  1.00  0.00
  C11                     1.00   0.00  0.00  0.00  0.05  0.95  0.00  0.00  1.00  0.00
  C20                     1.00   0.00  0.00  0.00  0.83  0.17  0.00  0.00  0.99  0.00
  C22                     1.00   0.00  0.00  0.00  1.00  0.00  0.00  0.00  1.00  0.00
  C12                     1.00   0.00  0.00  0.00  0.23  0.77  0.00  0.00  0.91  0.00
  C17                     1.00   0.00  0.00  0.00  0.41  0.59  0.00  0.00  0.97  0.00
  C10                     1.00   0.00  0.00  0.00  0.77  0.23  0.00  0.00  0.98  0.00
  C13                     1.00   0.00  0.00  0.00  0.76  0.24  0.00  0.00  0.84  0.00
  C18                     1.00   0.00  0.00  0.00  0.48  0.52  0.00  0.00  0.98  0.00
  C23                     1.00   0.00  0.00  0.00  0.80  0.20  0.00  0.00  0.96  0.00
  C4                      1.00   0.00  0.00  0.00  0.82  0.18  0.00  0.00  0.98  0.00
  C7                      1.00   0.00  0.00  0.00  0.73  0.27  0.00  0.00  0.83  0.00
  C14                     1.00   0.00  0.00  0.00  0.00  1.00  0.00  0.00  0.46  0.00
  C5                      1.00   0.00  0.00  0.00  0.94  0.06  0.00  0.00  0.96  0.00
  C8                      1.00   0.00  0.00  0.00  0.14  0.86  0.00  0.00  0.00  0.00
  C15                     1.00   0.25  0.00  0.00  0.02  0.73  0.00  0.00  0.02  0.00
  C21                     1.00   0.00  0.00  0.00  0.00  1.00  0.00  0.00  0.00  0.00
  
  
  *************************
  Conduit Surcharge Summary
  *************************
  
  ----------------------------------------------------------------------------
                                                           Hours        Hours 
                         --------- Hours Full --------   Above Full   Capacity
  Conduit                Both Ends  Upstream  Dnstream   Normal Flow   Limited
  ----------------------------------------------------------------------------
  C6                          0.01      0.35      0.01      0.14         0.01
  C10                         0.01      0.01      2.31      0.01         0.01
  C13                         0.01      0.01      3.36      0.01         0.01
  C18                         0.01      0.01      2.20      0.01         0.01
  C23                         0.01      0.01      7.11      0.01         0.01
  C4                          0.01      0.01     10.67      0.01         0.01
  C7                          0.01      0.01      3.25      0.01         0.01
  C5                          0.35      0.39      0.52      0.45         0.32
  C15                         0.01      0.96      0.01      0.99         0.01
  

  Analysis begun on:  Mon Sep 20 15:49:50 2021
  Analysis ended on:  Mon Sep 20 15:49:50 2021
  Total elapsed time: < 1 sec