
  EPA STORM WATER MANAGEMENT MODEL - VERSION 5.1 (Build 5.3.0.dev0)
  --------------------------------------------------------------

  WARNING 09: time series interval greater than recording interval for Rain Gage RG1
  WARNING 09: time series interval greater than recording interval for Rain Gage RG2
  WARNING 09: time series interval greater than recording interval for Rain Gage RG3
  WARNING 09: time series interval greater than recording interval for Rain Gage RG4
  
  *********************************************************
  NOTE: The summary statistics displayed in this report are
  based on results found at every computational time step,  
  not just on results from each reporting time step.
  *********************************************************
  
  ****************
  Analysis Options
  ****************
  Flow Units ............... CMS
  Process Models:
    Rainfall/Runoff ........ YES
    RDII ................... NO
    Snowmelt ............... NO
    Groundwater ............ NO
    Flow Routing ........... YES
    Ponding Allowed ........ YES
    Water Quality .......... NO
  Infiltration Method ...... HORTON
  Flow Routing Method ...... DYNWAVE
  Surcharge Method ......... EXTRAN
  Starting Date ............ 08/28/2015 00:00:00
  Ending Date .............. 08/28/2015 23:40:00
  Antecedent Dry Days ...... 0.0
  Report Time Step ......... 00:01:00
  Wet Time Step ............ 00:01:00
  Dry Time Step ............ 00:01:00
  Routing Time Step ........ 5.00 sec
  Variable Time Step ....... YES
  Maximum Trials ........... 8
  Number of Threads ........ 1
  Head Tolerance ........... 0.001500 m
  
  
  **************************        Volume         Depth
  Runoff Quantity Continuity     hectare-m            mm
  **************************     ---------       -------
  Total Precipitation ......         2.404        13.340
  Evaporation Loss .........         0.000         0.000
  Infiltration Loss ........         0.000         0.000
  Surface Runoff ...........         2.278        12.641
  Final Storage ............         0.128         0.710
  Continuity Error (%) .....        -0.083
  
  
  **************************        Volume        Volume
  Flow Routing Continuity        hectare-m      10^6 ltr
  **************************     ---------     ---------
  Dry Weather Inflow .......         0.758         7.576
  Wet Weather Inflow .......         2.277        22.766
  Groundwater Inflow .......         0.000         0.000
  RDII Inflow ..............         0.000         0.000
  External Inflow ..........         0.000         0.000
  External Outflow .........         1.554        15.544
  Flooding Loss ............         0.642         6.418
  Evaporation Loss .........         0.000         0.000
  Exfiltration Loss ........         0.000         0.000
  Initial Stored Volume ....         0.000         0.000
  Final Stored Volume ......         0.677         6.772
  Continuity Error (%) .....         5.297
  
  
  *************************
  Highest Continuity Errors
  *************************
  Node T5 (15.48%)
  Node T3 (9.28%)
  Node J12 (5.27%)
  Node T2 (3.83%)
  Node T6 (3.77%)
  
  
  ***************************
  Time-Step Critical Elements
  ***************************
  None
  
  
  ********************************
  Highest Flow Instability Indexes
  ********************************
  Link C15 (2)
  
  
  *************************
  Routing Time Step Summary
  *************************
  Minimum Time Step           :     4.50 sec
  Average Time Step           :     5.00 sec
  Maximum Time Step           :     5.00 sec
  Percent in Steady State     :     0.00
  Average Iterations per Step :     2.00
  Percent Not Converging      :     0.00
  
  
  ***************************
  Subcatchment Runoff Summary
  ***************************
  
  ------------------------------------------------------------------------------------------------------------------------------
                            Total      Total      Total      Total     Imperv       Perv      Total       Total     Peak  Runoff
                           Precip      Runon       Evap      Infil     Runoff     Runoff     Runoff      Runoff   Runoff   Coeff
  Subcatchment                 mm         mm         mm         mm         mm         mm         mm    10^6 ltr      CMS
  ------------------------------------------------------------------------------------------------------------------------------
  SC01                      10.60       0.00       0.00       0.00      10.10       0.00      10.10        3.33     0.25   0.952
  SC02                      11.96       0.00       0.00       0.00      11.39       0.00      11.39        2.59     0.14   0.952
  SC03                      16.80       0.00       0.00       0.00      16.40       0.00      16.40        2.95     0.16   0.976
  SC04                      11.96       0.00       0.00       0.00      11.00       0.00      11.00        0.76     0.03   0.920
  SC05                      10.60       0.00       0.00       0.00      10.06       0.00      10.06        1.57     0.11   0.949
  SC06                      14.70       0.00       0.00       0.00      13.57       0.00      13.57        4.42     0.22   0.923
  SC07                      11.96       0.00       0.00       0.00      11.01       0.00      11.01        0.52     0.02   0.920
  SC08                      16.80       0.00       0.00       0.00      16.11       0.00      16.11        4.51     0.20   0.959
  SC09                      14.70       0.00       0.00       0.00      13.86       0.00      13.86        0.96     0.06   0.943
  SC010                     10.60       0.00       0.00       0.00       9.96       0.00       9.96        1.17     0.08   0.940
  
  
  ******************
  Node Depth Summary
  ******************
  
  ---------------------------------------------------------------------------------
                                 Average  Maximum  Maximum  Time of Max    Reported
                                   Depth    Depth      HGL   Occurrence   Max Depth
  Node                 Type       Meters   Meters   Meters  days hr:min      Meters
  ---------------------------------------------------------------------------------
  J1                   JUNCTION     0.06     0.12    34.12     0  14:17        0.12
  J3                   JUNCTION     0.12     0.16    18.16     0  16:41        0.16
  CSO7                 JUNCTION     0.08     0.14    34.14     0  14:11        0.14
  J5                   JUNCTION     0.05     0.09    32.09     0  14:13        0.09
  CSO9                 JUNCTION     0.09     0.22    40.22     0  10:22        0.22
  J8                   JUNCTION     0.10     0.18    36.18     0  10:27        0.18
  CSO8                 JUNCTION     0.12     0.28    32.28     0  14:56        0.28
  J10                  JUNCTION     0.09     0.18    29.18     0  15:02        0.18
  J13                  JUNCTION     0.05     0.10    29.10     0  14:12        0.10
  J15                  JUNCTION     0.16     0.26    15.26     0  14:19        0.26
  J16                  JUNCTION     0.05     0.13    30.13     0  14:12        0.12
  CSO10                JUNCTION     0.09     0.23    30.23     0  14:16        0.23
  J12                  JUNCTION     0.41     1.00    27.00     0  18:39        1.00
  J4                   JUNCTION     0.09     0.16    33.16     0  14:14        0.16
  J6                   JUNCTION     0.06     0.09    25.09     0  15:39        0.09
  J2                   JUNCTION     0.05     0.08    25.08     0  16:50        0.08
  J19                  JUNCTION     0.13     0.17     8.17     0  13:03        0.17
  J9                   JUNCTION     0.11     0.15    29.15     0  16:00        0.15
  J14                  JUNCTION     0.14     0.19    20.19     0  22:54        0.19
  J17                  JUNCTION     0.07     0.11    20.11     0  15:36        0.11
  J7                   JUNCTION     0.07     0.15    39.15     0  10:28        0.15
  J11                  JUNCTION     0.10     0.19    31.19     0  15:03        0.19
  J18                  JUNCTION     0.04     0.10    29.10     0  14:18        0.10
  Out_to_WWTP          OUTFALL      0.13     0.17     6.17     0  13:01        0.17
  T5                   STORAGE      2.09     4.32    31.32     0  16:49        4.32
  T4                   STORAGE      0.59     1.55    28.55     0  15:37        1.55
  T6                   STORAGE      1.50     3.51    34.51     0  15:58        3.51
  T3                   STORAGE      2.58     5.00    27.00     0  17:54        5.00
  T2                   STORAGE      0.54     1.33    22.33     0  15:34        1.33
  T1                   STORAGE      2.98     5.00    15.00     0  13:02        5.00
  
  
  *******************
  Node Inflow Summary
  *******************
  
  -------------------------------------------------------------------------------------------------
                                  Maximum  Maximum                  Lateral       Total        Flow
                                  Lateral    Total  Time of Max      Inflow      Inflow     Balance
                                   Inflow   Inflow   Occurrence      Volume      Volume       Error
  Node                 Type           CMS      CMS  days hr:min    10^6 ltr    10^6 ltr     Percent
  -------------------------------------------------------------------------------------------------
  J1                   JUNCTION     0.132    0.132     0  14:11        2.66        2.66       0.134
  J3                   JUNCTION     0.000    0.267     0  16:39           0        13.9       0.330
  CSO7                 JUNCTION     0.033    0.033     0  14:11        1.09        1.09       0.061
  J5                   JUNCTION     0.038    0.068     0  14:11        1.01        2.09       0.205
  CSO9                 JUNCTION     0.065    0.065     0  10:21        1.34        1.34       0.084
  J8                   JUNCTION     0.250    0.307     0  10:26        6.25        7.57       0.221
  CSO8                 JUNCTION     0.208    0.208     0  14:56        4.96        4.96       0.040
  J10                  JUNCTION     0.173    0.343     0  15:01         3.7        8.63       0.230
  J13                  JUNCTION     0.152    0.152     0  14:11         3.5         3.5       0.099
  J15                  JUNCTION     0.000    0.621     0  14:17           0        22.9       0.564
  J16                  JUNCTION     0.270    0.270     0  14:11        4.41        4.41       0.170
  CSO10                JUNCTION     0.082    0.082     0  14:16        1.44        1.44       0.111
  J12                  JUNCTION     0.000    0.472     0  15:02           0        15.7       5.563
  J4                   JUNCTION     0.000    0.032     0  14:11           0        1.09       0.435
  J6                   JUNCTION     0.000    0.044     0  15:37           0        1.95       0.228
  J2                   JUNCTION     0.000    0.036     0  16:49           0        1.84       0.309
  J19                  JUNCTION     0.000    0.271     0  13:02           0        15.6       0.081
  J9                   JUNCTION     0.000    0.146     0  15:58           0        7.09       0.248
  J14                  JUNCTION     0.000    0.190     0  17:55           0        10.1       0.100
  J17                  JUNCTION     0.000    0.072     0  15:34           0         3.2       0.269
  J7                   JUNCTION     0.000    0.062     0  10:22           0        1.34       0.530
  J11                  JUNCTION     0.000    0.207     0  14:56           0        4.95       0.420
  J18                  JUNCTION     0.000    0.079     0  14:16           0        1.44       0.426
  Out_to_WWTP          OUTFALL      0.000    0.271     0  13:04           0        15.5       0.000
  T5                   STORAGE      0.000    0.123     0  14:17           0        2.66      18.314
  T4                   STORAGE      0.000    0.066     0  14:13           0        2.08       2.889
  T6                   STORAGE      0.000    0.297     0  10:27           0        7.56       3.914
  T3                   STORAGE      0.000    0.407     0  11:03           0        14.9      10.228
  T2                   STORAGE      0.000    0.142     0  14:12           0        3.49       3.984
  T1                   STORAGE      0.000    0.602     0  14:19           0        22.7       3.801
  
  
  **********************
  Node Surcharge Summary
  **********************
  
  No nodes were surcharged.
  
  
  *********************
  Node Flooding Summary
  *********************
  
  Flooding refers to all water that overflows a node, whether it ponds or not.
  --------------------------------------------------------------------------
                                                             Total   Maximum
                                 Maximum   Time of Max       Flood    Ponded
                        Hours       Rate    Occurrence      Volume     Depth
  Node                 Flooded       CMS   days hr:min    10^6 ltr    Meters
  --------------------------------------------------------------------------
  T3                      3.75     0.130      0  18:42       0.775     0.000
  T1                     10.62     0.332      0  14:19       5.644     0.000
  
  
  **********************
  Storage Volume Summary
  **********************
  
  --------------------------------------------------------------------------------------------------
                         Average     Avg  Evap Exfil       Maximum     Max    Time of Max    Maximum
                          Volume    Pcnt  Pcnt  Pcnt        Volume    Pcnt     Occurrence    Outflow
  Storage Unit           1000 m3    Full  Loss  Loss       1000 m3    Full    days hr:min        CMS
  --------------------------------------------------------------------------------------------------
  T5                       0.209      42     0     0         0.432      86       0  16:49      0.036
  T4                       0.059      12     0     0         0.155      31       0  15:37      0.044
  T6                       0.180      30     0     0         0.421      70       0  15:58      0.146
  T3                       1.343      52     0     0         2.600     100       0  17:54      0.190
  T2                       0.107      11     0     0         0.267      27       0  15:34      0.072
  T1                       0.417      60     0     0         0.700     100       0  13:02      0.271
  
  
  ***********************
  Outfall Loading Summary
  ***********************
  
  -----------------------------------------------------------
                         Flow       Avg       Max       Total
                         Freq      Flow      Flow      Volume
  Outfall Node           Pcnt       CMS       CMS    10^6 ltr
  -----------------------------------------------------------
  Out_to_WWTP           99.43     0.184     0.271      15.544
  -----------------------------------------------------------
  System                99.43     0.184     0.271      15.544
  
  
  ********************
  Link Flow Summary
  ********************
  
  -----------------------------------------------------------------------------
                                 Maximum  Time of Max   Maximum    Max/    Max/
                                  |Flow|   Occurrence   |Veloc|    Full    Full
  Link                 Type          CMS  days hr:min     m/sec    Flow   Depth
  -----------------------------------------------------------------------------
  C1                   CONDUIT     0.036     0  16:50      0.70    0.01    0.12
  C6                   CONDUIT     0.031     0  14:14      1.11    0.49    0.41
  C2                   CONDUIT     0.044     0  15:39      1.03    0.05    0.21
  C9                   CONDUIT     0.059     0  10:28      1.04    0.20    0.33
  C16                  CONDUIT     0.191     0  15:03      1.32    0.02    0.09
  C3                   CONDUIT     0.190     0  23:08      2.09    0.07    0.17
  C19                  CONDUIT     0.072     0  15:36      0.84    0.02    0.18
  C11                  CONDUIT     0.266     0  16:41      1.81    0.01    0.10
  C20                  CONDUIT     0.248     0  14:12      1.65    0.01    0.10
  C22                  CONDUIT     0.076     0  14:18      0.89    0.03    0.23
  C12                  CONDUIT     0.146     0  16:00      1.21    0.01    0.29
  C17                  CONDUIT     0.329     0  15:02      1.96    0.02    0.28
  C10                  CONDUIT     0.297     0  10:27      1.15    0.03    0.56
  C13                  CONDUIT     0.407     0  11:03      1.02    0.02    0.75
  C18                  CONDUIT     0.142     0  14:12      1.01    0.01    0.35
  C23                  CONDUIT     0.602     0  14:19      0.86    0.07    0.59
  C4                   CONDUIT     0.123     0  14:17      1.13    0.03    0.56
  C7                   CONDUIT     0.066     0  14:13      0.90    0.02    0.54
  C14                  CONDUIT     0.271     0  13:04      2.08    0.02    0.09
  C5                   CONDUIT     0.032     0  14:11      1.06    0.55    0.57
  C8                   CONDUIT     0.062     0  10:22      1.30    0.78    0.58
  C15                  CONDUIT     0.207     0  14:56      2.51    0.66    0.52
  C21                  CONDUIT     0.079     0  14:16      1.55    0.45    0.37
  V4                   ORIFICE     0.044     0  15:37                      1.00
  V5                   ORIFICE     0.036     0  16:49                      1.00
  V1                   ORIFICE     0.271     0  13:02                      1.00
  V6                   ORIFICE     0.146     0  15:58                      1.00
  V3                   ORIFICE     0.190     0  17:55                      1.00
  V2                   ORIFICE     0.072     0  15:34                      1.00
  
  
  ***************************
  Flow Classification Summary
  ***************************
  
  -------------------------------------------------------------------------------------
                      Adjusted    ---------- Fraction of Time in Flow Class ---------- 
                       /Actual         Up    Down  Sub   Sup   Up    Down  Norm  Inlet 
  Conduit               Length    Dry  Dry   Dry   Crit  Crit  Crit  Crit  Ltd   Ctrl  
  -------------------------------------------------------------------------------------
  C1                      1.00   0.00  0.00  0.00  0.93  0.07  0.00  0.00  0.97  0.00
  C6                      1.00   0.00  0.00  0.00  0.01  0.99  0.00  0.00  0.00  0.00
  C2                      1.00   0.00  0.00  0.00  0.59  0.40  0.00  0.00  0.97  0.00
  C9                      1.00   0.00  0.00  0.00  1.00  0.00  0.00  0.00  1.00  0.00
  C16                     1.00   0.00  0.06  0.00  0.16  0.78  0.00  0.00  0.11  0.00
  C3                      1.00   0.00  0.00  0.00  0.04  0.96  0.00  0.00  0.06  0.00
  C19                     1.00   0.00  0.00  0.00  1.00  0.00  0.00  0.00  1.00  0.00
  C11                     1.00   0.00  0.00  0.00  0.03  0.97  0.00  0.00  1.00  0.00
  C20                     1.00   0.00  0.00  0.00  0.87  0.13  0.00  0.00  0.99  0.00
  C22                     1.00   0.00  0.00  0.00  1.00  0.00  0.00  0.00  1.00  0.00
  C12                     1.00   0.00  0.00  0.00  0.79  0.21  0.00  0.00  0.94  0.00
  C17                     1.00   0.00  0.00  0.00  0.47  0.53  0.00  0.00  0.99  0.00
  C10                     1.00   0.00  0.00  0.00  0.91  0.09  0.00  0.00  0.97  0.00
  C13                     1.00   0.00  0.00  0.00  0.89  0.11  0.00  0.00  0.53  0.00
  C18                     1.00   0.00  0.00  0.00  0.69  0.31  0.00  0.00  0.98  0.00
  C23                     1.00   0.00  0.00  0.00  0.87  0.13  0.00  0.00  0.96  0.00
  C4                      1.00   0.00  0.00  0.00  0.82  0.18  0.00  0.00  0.98  0.00
  C7                      1.00   0.00  0.00  0.00  0.74  0.26  0.00  0.00  0.83  0.00
  C14                     1.00   0.00  0.00  0.00  0.00  1.00  0.00  0.00  0.23  0.00
  C5                      1.00   0.00  0.00  0.00  0.91  0.09  0.00  0.00  0.99  0.00
  C8                      1.00   0.00  0.00  0.00  0.04  0.96  0.00  0.00  0.00  0.00
  C15                     1.00   0.06  0.00  0.00  0.00  0.94  0.00  0.00  0.00  0.00
  C21                     1.00   0.00  0.00  0.00  0.00  1.00  0.00  0.00  0.00  0.00
  
  
  *************************
  Conduit Surcharge Summary
  *************************
  
  ----------------------------------------------------------------------------
                                                           Hours        Hours 
                         --------- Hours Full --------   Above Full   Capacity
  Conduit                Both Ends  Upstream  Dnstream   Normal Flow   Limited
  ----------------------------------------------------------------------------
  C10                         0.01      0.01     12.73      0.01         0.01
  C13                         0.01      0.01     12.46      0.01         0.01
  C23                         0.01      0.01     15.69      0.01         0.01
  C4                          0.01      0.01     13.65      0.01         0.01
  C7                          0.01      0.01      5.22      0.01         0.01
  

  Analysis begun on:  Mon Sep 20 16:10:02 2021
  Analysis ended on:  Mon Sep 20 16:10:02 2021
  Total elapsed time: < 1 sec