
  EPA STORM WATER MANAGEMENT MODEL - VERSION 5.1 (Build 5.3.0.dev0)
  --------------------------------------------------------------

  WARNING 09: time series interval greater than recording interval for Rain Gage RG1
  WARNING 09: time series interval greater than recording interval for Rain Gage RG2
  WARNING 09: time series interval greater than recording interval for Rain Gage RG3
  WARNING 09: time series interval greater than recording interval for Rain Gage RG4
  
  *********************************************************
  NOTE: The summary statistics displayed in this report are
  based on results found at every computational time step,  
  not just on results from each reporting time step.
  *********************************************************
  
  ****************
  Analysis Options
  ****************
  Flow Units ............... CMS
  Process Models:
    Rainfall/Runoff ........ YES
    RDII ................... NO
    Snowmelt ............... NO
    Groundwater ............ NO
    Flow Routing ........... YES
    Ponding Allowed ........ YES
    Water Quality .......... NO
  Infiltration Method ...... HORTON
  Flow Routing Method ...... DYNWAVE
  Surcharge Method ......... EXTRAN
  Starting Date ............ 08/28/2015 00:00:00
  Ending Date .............. 08/28/2015 23:40:00
  Antecedent Dry Days ...... 0.0
  Report Time Step ......... 00:01:00
  Wet Time Step ............ 00:01:00
  Dry Time Step ............ 00:01:00
  Routing Time Step ........ 5.00 sec
  Variable Time Step ....... YES
  Maximum Trials ........... 8
  Number of Threads ........ 1
  Head Tolerance ........... 0.001500 m
  
  
  **************************        Volume         Depth
  Runoff Quantity Continuity     hectare-m            mm
  **************************     ---------       -------
  Total Precipitation ......         2.178        12.085
  Evaporation Loss .........         0.000         0.000
  Infiltration Loss ........         0.000         0.000
  Surface Runoff ...........         2.165        12.016
  Final Storage ............         0.015         0.083
  Continuity Error (%) .....        -0.110
  
  
  **************************        Volume        Volume
  Flow Routing Continuity        hectare-m      10^6 ltr
  **************************     ---------     ---------
  Dry Weather Inflow .......         0.758         7.576
  Wet Weather Inflow .......         2.165        21.652
  Groundwater Inflow .......         0.000         0.000
  RDII Inflow ..............         0.000         0.000
  External Inflow ..........         0.000         0.000
  External Outflow .........         1.587        15.866
  Flooding Loss ............         0.978         9.783
  Evaporation Loss .........         0.000         0.000
  Exfiltration Loss ........         0.000         0.000
  Initial Stored Volume ....         0.000         0.000
  Final Stored Volume ......         0.308         3.085
  Continuity Error (%) .....         1.689
  
  
  *************************
  Highest Continuity Errors
  *************************
  Node T5 (6.94%)
  Node T3 (5.37%)
  Node T1 (2.41%)
  
  
  ***************************
  Time-Step Critical Elements
  ***************************
  None
  
  
  ********************************
  Highest Flow Instability Indexes
  ********************************
  All links are stable.
  
  
  *************************
  Routing Time Step Summary
  *************************
  Minimum Time Step           :     4.50 sec
  Average Time Step           :     5.00 sec
  Maximum Time Step           :     5.00 sec
  Percent in Steady State     :     0.00
  Average Iterations per Step :     2.19
  Percent Not Converging      :     0.88
  
  
  ***************************
  Subcatchment Runoff Summary
  ***************************
  
  ------------------------------------------------------------------------------------------------------------------------------
                            Total      Total      Total      Total     Imperv       Perv      Total       Total     Peak  Runoff
                           Precip      Runon       Evap      Infil     Runoff     Runoff     Runoff      Runoff   Runoff   Coeff
  Subcatchment                 mm         mm         mm         mm         mm         mm         mm    10^6 ltr      CMS
  ------------------------------------------------------------------------------------------------------------------------------
  SC01                      11.88       0.00       0.00       0.00      11.83       0.00      11.83        3.90     0.85   0.996
  SC02                      11.70       0.00       0.00       0.00      11.65       0.00      11.65        2.65     0.52   0.995
  SC03                      13.41       0.00       0.00       0.00      13.39       0.00      13.39        2.41     0.57   0.998
  SC04                      11.70       0.00       0.00       0.00      11.59       0.00      11.59        0.80     0.11   0.991
  SC05                      11.88       0.00       0.00       0.00      11.83       0.00      11.83        1.85     0.39   0.996
  SC06                      11.19       0.00       0.00       0.00      11.06       0.00      11.06        3.60     0.61   0.989
  SC07                      11.70       0.00       0.00       0.00      11.59       0.00      11.59        0.55     0.08   0.991
  SC08                      13.41       0.00       0.00       0.00      13.34       0.00      13.34        3.74     0.63   0.995
  SC09                      11.19       0.00       0.00       0.00      11.11       0.00      11.11        0.77     0.15   0.993
  SC010                     11.88       0.00       0.00       0.00      11.82       0.00      11.82        1.39     0.27   0.995
  
  
  ******************
  Node Depth Summary
  ******************
  
  ---------------------------------------------------------------------------------
                                 Average  Maximum  Maximum  Time of Max    Reported
                                   Depth    Depth      HGL   Occurrence   Max Depth
  Node                 Type       Meters   Meters   Meters  days hr:min      Meters
  ---------------------------------------------------------------------------------
  J1                   JUNCTION     0.05     0.20    34.20     0  09:46        0.20
  J3                   JUNCTION     0.12     0.16    18.16     0  15:14        0.16
  CSO7                 JUNCTION     0.10     1.20    35.20     0  09:20        1.20
  J5                   JUNCTION     0.05     0.14    32.14     0  09:27        0.14
  CSO9                 JUNCTION     0.10     2.00    42.00     0  09:40        2.00
  J8                   JUNCTION     0.08     0.28    36.28     0  09:52        0.28
  CSO8                 JUNCTION     0.13     2.00    34.00     0  09:06        2.00
  J10                  JUNCTION     0.07     0.29    29.29     0  09:22        0.29
  J13                  JUNCTION     0.05     0.19    29.19     0  09:21        0.19
  J15                  JUNCTION     0.17     0.37    15.37     0  09:49        0.37
  J16                  JUNCTION     0.05     0.22    30.22     0  09:46        0.22
  CSO10                JUNCTION     0.09     1.00    31.00     0  09:21        1.00
  J12                  JUNCTION     0.36     1.05    27.05     0  14:22        1.05
  J4                   JUNCTION     0.10     1.45    34.45     0  09:21        0.76
  J6                   JUNCTION     0.06     0.11    25.11     0  10:32        0.11
  J2                   JUNCTION     0.06     0.08    25.08     0  15:12        0.08
  J19                  JUNCTION     0.13     0.17     8.17     0  09:28        0.17
  J9                   JUNCTION     0.09     0.16    29.16     0  10:48        0.16
  J14                  JUNCTION     0.14     0.19    20.19     0  14:20        0.19
  J17                  JUNCTION     0.07     0.13    20.13     0  10:20        0.13
  J7                   JUNCTION     0.06     0.23    39.23     0  09:53        0.23
  J11                  JUNCTION     0.07     0.30    31.30     0  09:27        0.29
  J18                  JUNCTION     0.04     0.16    29.16     0  09:51        0.16
  Out_to_WWTP          OUTFALL      0.13     0.17     6.17     0  20:48        0.17
  T5                   STORAGE      2.61     5.00    32.00     0  09:55        5.00
  T4                   STORAGE      0.83     2.96    29.96     0  10:31        2.96
  T6                   STORAGE      1.34     5.00    36.00     0  09:53        5.00
  T3                   STORAGE      2.74     5.00    27.00     0  14:19        5.00
  T2                   STORAGE      0.77     2.79    23.79     0  10:18        2.79
  T1                   STORAGE      3.16     5.00    15.00     0  09:26        5.00
  
  
  *******************
  Node Inflow Summary
  *******************
  
  -------------------------------------------------------------------------------------------------
                                  Maximum  Maximum                  Lateral       Total        Flow
                                  Lateral    Total  Time of Max      Inflow      Inflow     Balance
                                   Inflow   Inflow   Occurrence      Volume      Volume       Error
  Node                 Type           CMS      CMS  days hr:min    10^6 ltr    10^6 ltr     Percent
  -------------------------------------------------------------------------------------------------
  J1                   JUNCTION     0.408    0.408     0  09:46        2.94        2.94      -0.030
  J3                   JUNCTION     0.000    0.281     0  15:13           0        14.4       0.236
  CSO7                 JUNCTION     0.087    0.087     0  09:21        1.12        1.12       0.019
  J5                   JUNCTION     0.117    0.187     0  09:26        1.05        2.16      -0.006
  CSO9                 JUNCTION     0.158    0.158     0  09:46        1.15        1.15      -0.002
  J8                   JUNCTION     0.636    0.748     0  09:46        5.43        6.57      -0.005
  CSO8                 JUNCTION     0.641    0.641     0  14:26        4.18        4.18      -0.014
  J10                  JUNCTION     0.578    0.973     0  09:16        3.16        7.29      -0.073
  J13                  JUNCTION     0.536    0.536     0  09:21        3.56        3.56      -0.165
  J15                  JUNCTION     0.000    1.318     0  09:47           0        24.5       0.285
  J16                  JUNCTION     0.865    0.865     0  09:46        4.98        4.98      -0.058
  CSO10                JUNCTION     0.279    0.279     0  09:46        1.66        1.66      -0.024
  J12                  JUNCTION     0.000    1.007     0  09:22           0        13.2       0.031
  J4                   JUNCTION     0.000    0.081     0  09:21           0        1.11       0.065
  J6                   JUNCTION     0.000    0.061     0  10:31           0        2.15       0.013
  J2                   JUNCTION     0.000    0.039     0  09:55           0        2.07       0.205
  J19                  JUNCTION     0.000    0.271     0  09:26           0        15.9       0.070
  J9                   JUNCTION     0.000    0.175     0  09:53           0        5.93      -0.029
  J14                  JUNCTION     0.000    0.190     0  14:19           0        10.1       0.078
  J17                  JUNCTION     0.000    0.104     0  10:19           0        3.56       0.023
  J7                   JUNCTION     0.000    0.127     0  09:53           0        1.14       0.077
  J11                  JUNCTION     0.000    0.486     0  09:23           0        4.13       0.033
  J18                  JUNCTION     0.000    0.202     0  09:51           0        1.64      -0.032
  Out_to_WWTP          OUTFALL      0.000    0.271     0  09:28           0        15.9       0.000
  T5                   STORAGE      0.000    0.374     0  09:46           0        2.94       7.461
  T4                   STORAGE      0.000    0.181     0  09:27           0        2.16       0.007
  T6                   STORAGE      0.000    0.715     0  09:52           0        6.57       0.000
  T3                   STORAGE      0.000    1.184     0  14:25           0        13.2       5.671
  T2                   STORAGE      0.000    0.494     0  09:21           0        3.57       0.173
  T1                   STORAGE      0.000    1.196     0  09:49           0        24.4       2.472
  
  
  **********************
  Node Surcharge Summary
  **********************
  
  Surcharging occurs when water rises above the top of the highest conduit.
  ---------------------------------------------------------------------
                                               Max. Height   Min. Depth
                                   Hours       Above Crown    Below Rim
  Node                 Type      Surcharged         Meters       Meters
  ---------------------------------------------------------------------
  CSO7                 JUNCTION        0.70          0.945        0.000
  CSO9                 JUNCTION        0.67          1.682        0.000
  CSO8                 JUNCTION        1.09          1.547        0.000
  CSO10                JUNCTION        0.52          0.560        0.000
  J4                   JUNCTION        0.64          1.148        0.552
  
  
  *********************
  Node Flooding Summary
  *********************
  
  Flooding refers to all water that overflows a node, whether it ponds or not.
  --------------------------------------------------------------------------
                                                             Total   Maximum
                                 Maximum   Time of Max       Flood    Ponded
                        Hours       Rate    Occurrence      Volume     Depth
  Node                 Flooded       CMS   days hr:min    10^6 ltr    Meters
  --------------------------------------------------------------------------
  CSO7                    0.35     0.019      0  09:21       0.007     0.000
  CSO9                    0.13     0.033      0  09:46       0.006     0.000
  CSO8                    0.28     0.161      0  14:26       0.053     0.000
  CSO10                   0.24     0.077      0  09:46       0.019     0.000
  T5                      2.46     0.203      0  14:27       0.462     0.000
  T6                      0.92     0.533      0  09:53       0.642     0.000
  T3                      1.03     0.994      0  14:25       1.123     0.000
  T1                     10.93     0.926      0  09:49       7.473     0.000
  
  
  **********************
  Storage Volume Summary
  **********************
  
  --------------------------------------------------------------------------------------------------
                         Average     Avg  Evap Exfil       Maximum     Max    Time of Max    Maximum
                          Volume    Pcnt  Pcnt  Pcnt        Volume    Pcnt     Occurrence    Outflow
  Storage Unit           1000 m3    Full  Loss  Loss       1000 m3    Full    days hr:min        CMS
  --------------------------------------------------------------------------------------------------
  T5                       0.261      52     0     0         0.500     100       0  09:55      0.039
  T4                       0.083      17     0     0         0.296      59       0  10:31      0.061
  T6                       0.160      27     0     0         0.600     100       0  09:53      0.175
  T3                       1.423      55     0     0         2.600     100       0  14:19      0.190
  T2                       0.154      15     0     0         0.558      56       0  10:18      0.104
  T1                       0.443      63     0     0         0.700     100       0  09:26      0.271
  
  
  ***********************
  Outfall Loading Summary
  ***********************
  
  -----------------------------------------------------------
                         Flow       Avg       Max       Total
                         Freq      Flow      Flow      Volume
  Outfall Node           Pcnt       CMS       CMS    10^6 ltr
  -----------------------------------------------------------
  Out_to_WWTP           99.43     0.187     0.271      15.866
  -----------------------------------------------------------
  System                99.43     0.187     0.271      15.866
  
  
  ********************
  Link Flow Summary
  ********************
  
  -----------------------------------------------------------------------------
                                 Maximum  Time of Max   Maximum    Max/    Max/
                                  |Flow|   Occurrence   |Veloc|    Full    Full
  Link                 Type          CMS  days hr:min     m/sec    Flow   Depth
  -----------------------------------------------------------------------------
  C1                   CONDUIT     0.039     0  10:45      0.74    0.01    0.12
  C6                   CONDUIT     0.071     0  09:27      1.29    1.12    0.74
  C2                   CONDUIT     0.061     0  10:32      1.28    0.07    0.23
  C9                   CONDUIT     0.126     0  09:53      1.28    0.43    0.50
  C16                  CONDUIT     0.484     0  09:22      1.76    0.05    0.15
  C3                   CONDUIT     0.190     0  14:40      2.07    0.07    0.18
  C19                  CONDUIT     0.104     0  10:20      1.05    0.04    0.25
  C11                  CONDUIT     0.281     0  15:14      1.86    0.01    0.13
  C20                  CONDUIT     0.785     0  09:46      2.86    0.02    0.14
  C22                  CONDUIT     0.202     0  09:51      1.43    0.09    0.33
  C12                  CONDUIT     0.175     0  10:48      1.08    0.01    0.30
  C17                  CONDUIT     0.891     0  09:22      3.02    0.04    0.33
  C10                  CONDUIT     0.715     0  09:52      0.94    0.07    0.59
  C13                  CONDUIT     1.184     0  14:25      0.93    0.07    0.76
  C18                  CONDUIT     0.494     0  09:21      1.01    0.02    0.54
  C23                  CONDUIT     1.196     0  09:49      1.03    0.13    0.62
  C4                   CONDUIT     0.374     0  09:46      1.13    0.09    0.60
  C7                   CONDUIT     0.181     0  09:27      0.91    0.04    0.57
  C14                  CONDUIT     0.271     0  09:28      2.08    0.02    0.09
  C5                   CONDUIT     0.081     0  09:21      1.58    1.38    1.00
  C8                   CONDUIT     0.127     0  09:53      1.78    1.60    0.86
  C15                  CONDUIT     0.486     0  09:23      3.55    1.55    0.83
  C21                  CONDUIT     0.202     0  09:51      1.86    1.16    0.69
  V4                   ORIFICE     0.061     0  10:31                      1.00
  V5                   ORIFICE     0.039     0  09:55                      1.00
  V1                   ORIFICE     0.271     0  09:26                      1.00
  V6                   ORIFICE     0.175     0  09:53                      1.00
  V3                   ORIFICE     0.190     0  14:19                      1.00
  V2                   ORIFICE     0.104     0  10:19                      1.00
  
  
  ***************************
  Flow Classification Summary
  ***************************
  
  -------------------------------------------------------------------------------------
                      Adjusted    ---------- Fraction of Time in Flow Class ---------- 
                       /Actual         Up    Down  Sub   Sup   Up    Down  Norm  Inlet 
  Conduit               Length    Dry  Dry   Dry   Crit  Crit  Crit  Crit  Ltd   Ctrl  
  -------------------------------------------------------------------------------------
  C1                      1.00   0.00  0.00  0.00  0.93  0.07  0.00  0.00  0.97  0.00
  C6                      1.00   0.00  0.00  0.00  0.04  0.96  0.00  0.00  0.00  0.00
  C2                      1.00   0.00  0.00  0.00  0.42  0.58  0.00  0.00  0.97  0.00
  C9                      1.00   0.00  0.00  0.00  1.00  0.00  0.00  0.00  1.00  0.00
  C16                     1.00   0.00  0.10  0.00  0.43  0.48  0.00  0.00  0.40  0.00
  C3                      1.00   0.00  0.00  0.00  0.04  0.96  0.00  0.00  0.07  0.00
  C19                     1.00   0.00  0.00  0.00  1.00  0.00  0.00  0.00  1.00  0.00
  C11                     1.00   0.00  0.00  0.00  0.09  0.91  0.00  0.00  1.00  0.00
  C20                     1.00   0.00  0.00  0.00  0.81  0.19  0.00  0.00  0.99  0.00
  C22                     1.00   0.00  0.00  0.00  0.98  0.02  0.00  0.00  1.00  0.00
  C12                     1.00   0.00  0.00  0.00  0.76  0.24  0.00  0.00  0.95  0.00
  C17                     1.00   0.00  0.00  0.00  0.68  0.32  0.00  0.00  0.99  0.00
  C10                     1.00   0.00  0.00  0.00  0.73  0.27  0.00  0.00  0.98  0.00
  C13                     1.00   0.00  0.00  0.00  0.84  0.16  0.00  0.00  0.46  0.00
  C18                     1.00   0.00  0.00  0.00  0.66  0.34  0.00  0.00  0.98  0.00
  C23                     1.00   0.00  0.00  0.00  0.84  0.16  0.00  0.00  0.96  0.00
  C4                      1.00   0.00  0.00  0.00  0.85  0.15  0.00  0.00  0.98  0.00
  C7                      1.00   0.00  0.00  0.00  0.71  0.29  0.00  0.00  0.84  0.00
  C14                     1.00   0.00  0.00  0.00  0.00  1.00  0.00  0.00  0.14  0.00
  C5                      1.00   0.00  0.00  0.00  0.92  0.08  0.00  0.00  0.95  0.00
  C8                      1.00   0.00  0.00  0.00  0.22  0.78  0.00  0.00  0.01  0.00
  C15                     1.00   0.10  0.00  0.00  0.00  0.90  0.00  0.00  0.01  0.00
  C21                     1.00   0.00  0.00  0.00  0.01  0.99  0.00  0.00  0.00  0.00
  
  
  *************************
  Conduit Surcharge Summary
  *************************
  
  ----------------------------------------------------------------------------
                                                           Hours        Hours 
                         --------- Hours Full --------   Above Full   Capacity
  Conduit                Both Ends  Upstream  Dnstream   Normal Flow   Limited
  ----------------------------------------------------------------------------
  C6                          0.01      0.64      0.01      0.55         0.01
  C10                         0.01      0.01      8.08      0.01         0.01
  C13                         0.01      0.01     14.37      0.01         0.01
  C18                         0.01      0.01      2.93      0.01         0.01
  C23                         0.01      0.01     15.29      0.01         0.01
  C4                          0.01      0.01     15.06      0.01         0.01
  C7                          0.01      0.01      8.32      0.01         0.01
  C5                          0.67      0.70      0.78      0.72         0.65
  C8                          0.01      0.68      0.01      0.67         0.01
  C15                         0.01      1.09      0.01      1.14         0.01
  C21                         0.01      0.52      0.01      0.46         0.01
  

  Analysis begun on:  Mon Sep 20 16:17:20 2021
  Analysis ended on:  Mon Sep 20 16:17:20 2021
  Total elapsed time: < 1 sec