
  EPA STORM WATER MANAGEMENT MODEL - VERSION 5.1 (Build 5.3.0.dev0)
  --------------------------------------------------------------

  WARNING 09: time series interval greater than recording interval for Rain Gage RG1
  WARNING 09: time series interval greater than recording interval for Rain Gage RG2
  WARNING 09: time series interval greater than recording interval for Rain Gage RG3
  WARNING 09: time series interval greater than recording interval for Rain Gage RG4
  
  *********************************************************
  NOTE: The summary statistics displayed in this report are
  based on results found at every computational time step,  
  not just on results from each reporting time step.
  *********************************************************
  
  ****************
  Analysis Options
  ****************
  Flow Units ............... CMS
  Process Models:
    Rainfall/Runoff ........ YES
    RDII ................... NO
    Snowmelt ............... NO
    Groundwater ............ NO
    Flow Routing ........... YES
    Ponding Allowed ........ YES
    Water Quality .......... NO
  Infiltration Method ...... HORTON
  Flow Routing Method ...... DYNWAVE
  Surcharge Method ......... EXTRAN
  Starting Date ............ 08/28/2015 00:00:00
  Ending Date .............. 08/28/2015 23:40:00
  Antecedent Dry Days ...... 0.0
  Report Time Step ......... 00:01:00
  Wet Time Step ............ 00:01:00
  Dry Time Step ............ 00:01:00
  Routing Time Step ........ 5.00 sec
  Variable Time Step ....... YES
  Maximum Trials ........... 8
  Number of Threads ........ 1
  Head Tolerance ........... 0.001500 m
  
  
  **************************        Volume         Depth
  Runoff Quantity Continuity     hectare-m            mm
  **************************     ---------       -------
  Total Precipitation ......         1.977        10.970
  Evaporation Loss .........         0.000         0.000
  Infiltration Loss ........         0.000         0.000
  Surface Runoff ...........         1.968        10.921
  Final Storage ............         0.011         0.063
  Continuity Error (%) .....        -0.126
  
  
  **************************        Volume        Volume
  Flow Routing Continuity        hectare-m      10^6 ltr
  **************************     ---------     ---------
  Dry Weather Inflow .......         0.758         7.576
  Wet Weather Inflow .......         1.968        19.680
  Groundwater Inflow .......         0.000         0.000
  RDII Inflow ..............         0.000         0.000
  External Inflow ..........         0.000         0.000
  External Outflow .........         1.980        19.801
  Flooding Loss ............         0.616         6.160
  Evaporation Loss .........         0.000         0.000
  Exfiltration Loss ........         0.000         0.000
  Initial Stored Volume ....         0.000         0.000
  Final Stored Volume ......         0.135         1.351
  Continuity Error (%) .....        -0.209
  
  
  *************************
  Highest Continuity Errors
  *************************
  Node T5 (3.95%)
  Node T3 (1.51%)
  Node T1 (1.00%)
  
  
  ***************************
  Time-Step Critical Elements
  ***************************
  None
  
  
  ********************************
  Highest Flow Instability Indexes
  ********************************
  All links are stable.
  
  
  *************************
  Routing Time Step Summary
  *************************
  Minimum Time Step           :     4.50 sec
  Average Time Step           :     5.00 sec
  Maximum Time Step           :     5.00 sec
  Percent in Steady State     :     0.00
  Average Iterations per Step :     2.09
  Percent Not Converging      :     0.08
  
  
  ***************************
  Subcatchment Runoff Summary
  ***************************
  
  ------------------------------------------------------------------------------------------------------------------------------
                            Total      Total      Total      Total     Imperv       Perv      Total       Total     Peak  Runoff
                           Precip      Runon       Evap      Infil     Runoff     Runoff     Runoff      Runoff   Runoff   Coeff
  Subcatchment                 mm         mm         mm         mm         mm         mm         mm    10^6 ltr      CMS
  ------------------------------------------------------------------------------------------------------------------------------
  SC01                      10.88       0.00       0.00       0.00      10.84       0.00      10.84        3.58     0.88   0.997
  SC02                       8.42       0.00       0.00       0.00       8.37       0.00       8.37        1.91     0.38   0.995
  SC03                      11.53       0.00       0.00       0.00      11.51       0.00      11.51        2.07     0.74   0.998
  SC04                       8.42       0.00       0.00       0.00       8.35       0.00       8.35        0.58     0.09   0.992
  SC05                      10.88       0.00       0.00       0.00      10.84       0.00      10.84        1.69     0.39   0.996
  SC06                      12.68       0.00       0.00       0.00      12.60       0.00      12.60        4.10     0.36   0.994
  SC07                       8.42       0.00       0.00       0.00       8.35       0.00       8.35        0.40     0.06   0.992
  SC08                      11.53       0.00       0.00       0.00      11.48       0.00      11.48        3.22     0.76   0.996
  SC09                      12.68       0.00       0.00       0.00      12.62       0.00      12.62        0.87     0.10   0.996
  SC010                     10.88       0.00       0.00       0.00      10.83       0.00      10.83        1.27     0.24   0.996
  
  
  ******************
  Node Depth Summary
  ******************
  
  ---------------------------------------------------------------------------------
                                 Average  Maximum  Maximum  Time of Max    Reported
                                   Depth    Depth      HGL   Occurrence   Max Depth
  Node                 Type       Meters   Meters   Meters  days hr:min      Meters
  ---------------------------------------------------------------------------------
  J1                   JUNCTION     0.06     0.20    34.20     0  01:21        0.20
  J3                   JUNCTION     0.13     0.16    18.16     0  05:33        0.16
  CSO7                 JUNCTION     0.07     0.22    34.22     0  04:51        0.22
  J5                   JUNCTION     0.05     0.13    32.13     0  04:52        0.13
  CSO9                 JUNCTION     0.09     1.09    41.09     0  01:16        0.97
  J8                   JUNCTION     0.09     0.21    36.21     0  02:48        0.21
  CSO8                 JUNCTION     0.12     2.00    34.00     0  01:10        2.00
  J10                  JUNCTION     0.07     0.31    29.31     0  01:17        0.31
  J13                  JUNCTION     0.04     0.16    29.16     0  04:46        0.16
  J15                  JUNCTION     0.18     0.33    15.33     0  04:54        0.33
  J16                  JUNCTION     0.05     0.22    30.22     0  01:21        0.22
  CSO10                JUNCTION     0.09     1.00    31.00     0  01:21        1.00
  J12                  JUNCTION     0.36     1.02    27.02     0  05:23        1.02
  J4                   JUNCTION     0.09     0.25    33.25     0  04:54        0.25
  J6                   JUNCTION     0.06     0.10    25.10     0  05:33        0.10
  J2                   JUNCTION     0.07     0.08    25.08     0  05:34        0.08
  J19                  JUNCTION     0.15     0.17     8.17     0  02:25        0.17
  J9                   JUNCTION     0.10     0.16    29.16     0  05:25        0.16
  J14                  JUNCTION     0.16     0.19    20.19     0  08:30        0.19
  J17                  JUNCTION     0.07     0.12    20.12     0  05:20        0.12
  J7                   JUNCTION     0.07     0.19    39.19     0  01:22        0.19
  J11                  JUNCTION     0.06     0.29    31.29     0  01:23        0.29
  J18                  JUNCTION     0.04     0.16    29.16     0  01:27        0.16
  Out_to_WWTP          OUTFALL      0.15     0.17     6.17     0  14:28        0.17
  T5                   STORAGE      2.93     5.00    32.00     0  04:56        5.00
  T4                   STORAGE      0.49     1.96    28.96     0  05:31        1.96
  T6                   STORAGE      1.62     5.00    36.00     0  03:07        5.00
  T3                   STORAGE      3.20     5.00    27.00     0  05:16        5.00
  T2                   STORAGE      0.47     1.99    22.99     0  05:18        1.99
  T1                   STORAGE      4.00     5.00    15.00     0  02:24        5.00
  
  
  *******************
  Node Inflow Summary
  *******************
  
  -------------------------------------------------------------------------------------------------
                                  Maximum  Maximum                  Lateral       Total        Flow
                                  Lateral    Total  Time of Max      Inflow      Inflow     Balance
                                   Inflow   Inflow   Occurrence      Volume      Volume       Error
  Node                 Type           CMS      CMS  days hr:min    10^6 ltr    10^6 ltr     Percent
  -------------------------------------------------------------------------------------------------
  J1                   JUNCTION     0.391    0.391     0  01:21        2.78        2.78      -0.153
  J3                   JUNCTION     0.000    0.279     0  05:32           0        16.5       0.145
  CSO7                 JUNCTION     0.064    0.064     0  04:51       0.962       0.962       0.014
  J5                   JUNCTION     0.089    0.143     0  04:51       0.824        1.78      -0.050
  CSO9                 JUNCTION     0.097    0.097     0  01:16        1.25        1.25      -0.001
  J8                   JUNCTION     0.368    0.435     0  02:46        5.93        7.18      -0.068
  CSO8                 JUNCTION     0.758    0.758     0  01:16        3.66        3.66      -0.022
  J10                  JUNCTION     0.739    1.201     0  01:16        2.82         6.4      -0.169
  J13                  JUNCTION     0.386    0.386     0  04:41        2.81        2.81      -0.261
  J15                  JUNCTION     0.000    1.064     0  01:22           0        25.4       0.174
  J16                  JUNCTION     0.882    0.882     0  01:21        4.66        4.66      -0.127
  CSO10                JUNCTION     0.243    0.243     0  01:21        1.54        1.54      -0.038
  J12                  JUNCTION     0.000    1.128     0  01:17           0        13.2      -0.088
  J4                   JUNCTION     0.000    0.061     0  04:52           0       0.962       0.118
  J6                   JUNCTION     0.000    0.050     0  05:31           0        1.78       0.021
  J2                   JUNCTION     0.000    0.039     0  04:56           0        2.45       0.131
  J19                  JUNCTION     0.000    0.271     0  02:24           0        19.8       0.039
  J9                   JUNCTION     0.000    0.175     0  03:07           0        6.83      -0.009
  J14                  JUNCTION     0.000    0.190     0  05:16           0        12.2       0.040
  J17                  JUNCTION     0.000    0.088     0  05:18           0        2.81       0.046
  J7                   JUNCTION     0.000    0.096     0  01:21           0        1.25       0.079
  J11                  JUNCTION     0.000    0.486     0  01:23           0        3.59       0.086
  J18                  JUNCTION     0.000    0.202     0  01:27           0        1.54      -0.092
  Out_to_WWTP          OUTFALL      0.000    0.271     0  02:26           0        19.8       0.000
  T5                   STORAGE      0.000    0.356     0  01:22           0        2.79       4.113
  T4                   STORAGE      0.000    0.139     0  04:52           0        1.79       0.074
  T6                   STORAGE      0.000    0.413     0  02:48           0        7.19       0.061
  T3                   STORAGE      0.000    1.065     0  01:19           0        13.3       1.529
  T2                   STORAGE      0.000    0.355     0  04:46           0        2.82       0.284
  T1                   STORAGE      0.000    0.990     0  04:54           0        25.4       1.012
  
  
  **********************
  Node Surcharge Summary
  **********************
  
  Surcharging occurs when water rises above the top of the highest conduit.
  ---------------------------------------------------------------------
                                               Max. Height   Min. Depth
                                   Hours       Above Crown    Below Rim
  Node                 Type      Surcharged         Meters       Meters
  ---------------------------------------------------------------------
  CSO9                 JUNCTION        0.17          0.773        0.909
  CSO8                 JUNCTION        0.75          1.547        0.000
  CSO10                JUNCTION        0.18          0.560        0.000
  
  
  *********************
  Node Flooding Summary
  *********************
  
  Flooding refers to all water that overflows a node, whether it ponds or not.
  --------------------------------------------------------------------------
                                                             Total   Maximum
                                 Maximum   Time of Max       Flood    Ponded
                        Hours       Rate    Occurrence      Volume     Depth
  Node                 Flooded       CMS   days hr:min    10^6 ltr    Meters
  --------------------------------------------------------------------------
  CSO8                    0.26     0.273      0  01:16       0.078     0.000
  CSO10                   0.08     0.067      0  01:21       0.005     0.000
  T5                      0.64     0.191      0  04:56       0.134     0.000
  T6                      0.88     0.230      0  04:47       0.354     0.000
  T3                      2.13     0.277      0  05:16       0.439     0.000
  T1                     11.67     0.719      0  04:54       5.150     0.000
  
  
  **********************
  Storage Volume Summary
  **********************
  
  --------------------------------------------------------------------------------------------------
                         Average     Avg  Evap Exfil       Maximum     Max    Time of Max    Maximum
                          Volume    Pcnt  Pcnt  Pcnt        Volume    Pcnt     Occurrence    Outflow
  Storage Unit           1000 m3    Full  Loss  Loss       1000 m3    Full    days hr:min        CMS
  --------------------------------------------------------------------------------------------------
  T5                       0.293      59     0     0         0.500     100       0  04:56      0.039
  T4                       0.049      10     0     0         0.196      39       0  05:31      0.050
  T6                       0.195      32     0     0         0.600     100       0  03:07      0.175
  T3                       1.667      64     0     0         2.600     100       0  05:16      0.190
  T2                       0.094       9     0     0         0.399      40       0  05:18      0.088
  T1                       0.560      80     0     0         0.700     100       0  02:24      0.271
  
  
  ***********************
  Outfall Loading Summary
  ***********************
  
  -----------------------------------------------------------
                         Flow       Avg       Max       Total
                         Freq      Flow      Flow      Volume
  Outfall Node           Pcnt       CMS       CMS    10^6 ltr
  -----------------------------------------------------------
  Out_to_WWTP           99.43     0.234     0.271      19.801
  -----------------------------------------------------------
  System                99.43     0.234     0.271      19.801
  
  
  ********************
  Link Flow Summary
  ********************
  
  -----------------------------------------------------------------------------
                                 Maximum  Time of Max   Maximum    Max/    Max/
                                  |Flow|   Occurrence   |Veloc|    Full    Full
  Link                 Type          CMS  days hr:min     m/sec    Flow   Depth
  -----------------------------------------------------------------------------
  C1                   CONDUIT     0.039     0  05:34      0.74    0.01    0.12
  C6                   CONDUIT     0.057     0  04:54      1.26    0.91    0.62
  C2                   CONDUIT     0.050     0  05:33      1.10    0.06    0.22
  C9                   CONDUIT     0.086     0  01:22      1.19    0.30    0.40
  C16                  CONDUIT     0.484     0  01:21      1.76    0.05    0.15
  C3                   CONDUIT     0.190     0  05:18      2.09    0.07    0.18
  C19                  CONDUIT     0.088     0  05:20      0.96    0.03    0.22
  C11                  CONDUIT     0.279     0  05:33      1.86    0.01    0.12
  C20                  CONDUIT     0.801     0  01:21      4.27    0.03    0.13
  C22                  CONDUIT     0.200     0  01:28      1.60    0.09    0.31
  C12                  CONDUIT     0.175     0  05:25      1.44    0.01    0.30
  C17                  CONDUIT     1.072     0  01:17      3.28    0.05    0.29
  C10                  CONDUIT     0.413     0  02:48      2.09    0.04    0.57
  C13                  CONDUIT     1.065     0  01:19      3.13    0.06    0.75
  C18                  CONDUIT     0.355     0  04:46      2.97    0.01    0.52
  C23                  CONDUIT     0.990     0  04:54      2.55    0.11    0.61
  C4                   CONDUIT     0.356     0  01:22      2.70    0.09    0.59
  C7                   CONDUIT     0.139     0  04:52      1.81    0.03    0.56
  C14                  CONDUIT     0.271     0  02:26      2.08    0.02    0.09
  C5                   CONDUIT     0.061     0  04:52      1.30    1.05    0.91
  C8                   CONDUIT     0.096     0  01:21      1.47    1.21    0.79
  C15                  CONDUIT     0.486     0  01:23      3.60    1.55    0.83
  C21                  CONDUIT     0.202     0  01:27      1.87    1.16    0.68
  V4                   ORIFICE     0.050     0  05:31                      1.00
  V5                   ORIFICE     0.039     0  04:56                      1.00
  V1                   ORIFICE     0.271     0  02:24                      1.00
  V6                   ORIFICE     0.175     0  03:07                      1.00
  V3                   ORIFICE     0.190     0  05:16                      1.00
  V2                   ORIFICE     0.088     0  05:18                      1.00
  
  
  ***************************
  Flow Classification Summary
  ***************************
  
  -------------------------------------------------------------------------------------
                      Adjusted    ---------- Fraction of Time in Flow Class ---------- 
                       /Actual         Up    Down  Sub   Sup   Up    Down  Norm  Inlet 
  Conduit               Length    Dry  Dry   Dry   Crit  Crit  Crit  Crit  Ltd   Ctrl  
  -------------------------------------------------------------------------------------
  C1                      1.00   0.00  0.00  0.00  0.95  0.05  0.00  0.00  0.97  0.00
  C6                      1.00   0.00  0.00  0.00  0.01  0.99  0.00  0.00  0.00  0.00
  C2                      1.00   0.00  0.00  0.00  0.75  0.25  0.00  0.00  0.97  0.00
  C9                      1.00   0.00  0.00  0.00  1.00  0.00  0.00  0.00  1.00  0.00
  C16                     1.00   0.00  0.04  0.00  0.66  0.30  0.00  0.00  0.54  0.00
  C3                      1.00   0.00  0.00  0.00  0.04  0.96  0.00  0.00  0.04  0.00
  C19                     1.00   0.00  0.00  0.00  1.00  0.00  0.00  0.00  1.00  0.00
  C11                     1.00   0.00  0.00  0.00  0.07  0.93  0.00  0.00  1.00  0.00
  C20                     1.00   0.00  0.00  0.00  0.84  0.16  0.00  0.00  0.99  0.00
  C22                     1.00   0.00  0.00  0.00  0.98  0.02  0.00  0.00  1.00  0.00
  C12                     1.00   0.00  0.00  0.00  0.51  0.49  0.00  0.00  0.93  0.00
  C17                     1.00   0.00  0.00  0.00  0.81  0.19  0.00  0.00  0.98  0.00
  C10                     1.00   0.00  0.00  0.00  0.90  0.10  0.00  0.00  0.96  0.00
  C13                     1.00   0.00  0.00  0.00  0.94  0.06  0.00  0.00  0.55  0.00
  C18                     1.00   0.00  0.00  0.00  0.63  0.37  0.00  0.00  0.97  0.00
  C23                     1.00   0.00  0.00  0.00  0.94  0.06  0.00  0.00  0.95  0.00
  C4                      1.00   0.00  0.00  0.00  0.94  0.06  0.00  0.00  0.97  0.00
  C7                      1.00   0.00  0.00  0.00  0.87  0.13  0.00  0.00  0.94  0.00
  C14                     1.00   0.00  0.00  0.00  0.00  1.00  0.00  0.00  0.29  0.00
  C5                      1.00   0.00  0.00  0.00  0.92  0.08  0.00  0.00  0.98  0.00
  C8                      1.00   0.00  0.00  0.00  0.14  0.86  0.00  0.00  0.01  0.00
  C15                     1.00   0.04  0.00  0.00  0.02  0.93  0.00  0.00  0.03  0.00
  C21                     1.00   0.00  0.00  0.00  0.01  0.99  0.00  0.00  0.00  0.00
  
  
  *************************
  Conduit Surcharge Summary
  *************************
  
  ----------------------------------------------------------------------------
                                                           Hours        Hours 
                         --------- Hours Full --------   Above Full   Capacity
  Conduit                Both Ends  Upstream  Dnstream   Normal Flow   Limited
  ----------------------------------------------------------------------------
  C10                         0.01      0.01      8.64      0.01         0.01
  C13                         0.01      0.01     17.21      0.01         0.01
  C23                         0.01      0.01     21.85      0.01         0.01
  C4                          0.01      0.01     22.10      0.01         0.01
  C7                          0.01      0.01      3.59      0.01         0.01
  C5                          0.01      0.01      0.01      0.07         0.01
  C8                          0.01      0.17      0.01      0.17         0.01
  C15                         0.01      0.75      0.01      0.81         0.01
  C21                         0.01      0.18      0.01      0.17         0.01
  

  Analysis begun on:  Mon Sep 20 16:24:32 2021
  Analysis ended on:  Mon Sep 20 16:24:32 2021
  Total elapsed time: < 1 sec