
  EPA STORM WATER MANAGEMENT MODEL - VERSION 5.1 (Build 5.3.0.dev0)
  --------------------------------------------------------------

  WARNING 09: time series interval greater than recording interval for Rain Gage RG1
  WARNING 09: time series interval greater than recording interval for Rain Gage RG2
  WARNING 09: time series interval greater than recording interval for Rain Gage RG3
  WARNING 09: time series interval greater than recording interval for Rain Gage RG4
  
  *********************************************************
  NOTE: The summary statistics displayed in this report are
  based on results found at every computational time step,  
  not just on results from each reporting time step.
  *********************************************************
  
  ****************
  Analysis Options
  ****************
  Flow Units ............... CMS
  Process Models:
    Rainfall/Runoff ........ YES
    RDII ................... NO
    Snowmelt ............... NO
    Groundwater ............ NO
    Flow Routing ........... YES
    Ponding Allowed ........ YES
    Water Quality .......... NO
  Infiltration Method ...... HORTON
  Flow Routing Method ...... DYNWAVE
  Surcharge Method ......... EXTRAN
  Starting Date ............ 08/28/2015 00:00:00
  Ending Date .............. 08/28/2015 23:40:00
  Antecedent Dry Days ...... 0.0
  Report Time Step ......... 00:01:00
  Wet Time Step ............ 00:01:00
  Dry Time Step ............ 00:01:00
  Routing Time Step ........ 5.00 sec
  Variable Time Step ....... YES
  Maximum Trials ........... 8
  Number of Threads ........ 1
  Head Tolerance ........... 0.001500 m
  
  
  **************************        Volume         Depth
  Runoff Quantity Continuity     hectare-m            mm
  **************************     ---------       -------
  Total Precipitation ......         3.761        20.870
  Evaporation Loss .........         0.000         0.000
  Infiltration Loss ........         0.000         0.000
  Surface Runoff ...........         3.761        20.874
  Final Storage ............         0.023         0.126
  Continuity Error (%) .....        -0.620
  
  
  **************************        Volume        Volume
  Flow Routing Continuity        hectare-m      10^6 ltr
  **************************     ---------     ---------
  Dry Weather Inflow .......         0.758         7.576
  Wet Weather Inflow .......         3.761        37.615
  Groundwater Inflow .......         0.000         0.000
  RDII Inflow ..............         0.000         0.000
  External Inflow ..........         0.000         0.000
  External Outflow .........         1.226        12.265
  Flooding Loss ............         2.710        27.101
  Evaporation Loss .........         0.000         0.000
  Exfiltration Loss ........         0.000         0.000
  Initial Stored Volume ....         0.000         0.000
  Final Stored Volume ......         0.465         4.647
  Continuity Error (%) .....         2.606
  
  
  *************************
  Highest Continuity Errors
  *************************
  Node T5 (8.31%)
  Node T3 (6.88%)
  Node T1 (3.70%)
  Node T2 (1.36%)
  
  
  ***************************
  Time-Step Critical Elements
  ***************************
  None
  
  
  ********************************
  Highest Flow Instability Indexes
  ********************************
  All links are stable.
  
  
  *************************
  Routing Time Step Summary
  *************************
  Minimum Time Step           :     4.50 sec
  Average Time Step           :     5.00 sec
  Maximum Time Step           :     5.00 sec
  Percent in Steady State     :     0.00
  Average Iterations per Step :     2.14
  Percent Not Converging      :     0.53
  
  
  ***************************
  Subcatchment Runoff Summary
  ***************************
  
  ------------------------------------------------------------------------------------------------------------------------------
                            Total      Total      Total      Total     Imperv       Perv      Total       Total     Peak  Runoff
                           Precip      Runon       Evap      Infil     Runoff     Runoff     Runoff      Runoff   Runoff   Coeff
  Subcatchment                 mm         mm         mm         mm         mm         mm         mm    10^6 ltr      CMS
  ------------------------------------------------------------------------------------------------------------------------------
  SC01                      12.93       0.00       0.00       0.00      12.94       0.00      12.94        4.27     6.30   1.001
  SC02                      31.76       0.00       0.00       0.00      31.88       0.00      31.88        7.25     4.80   1.004
  SC03                      38.82       0.00       0.00       0.00      39.14       0.00      39.14        7.05     4.42   1.008
  SC04                      31.76       0.00       0.00       0.00      31.65       0.00      31.65        2.18     0.81   0.996
  SC05                      12.93       0.00       0.00       0.00      12.93       0.00      12.93        2.02     2.74   1.000
  SC06                       2.59       0.00       0.00       0.00       2.40       0.00       2.40        0.78     0.18   0.926
  SC07                      31.76       0.00       0.00       0.00      31.65       0.00      31.65        1.50     0.56   0.996
  SC08                      38.82       0.00       0.00       0.00      38.84       0.00      38.84       10.88     5.14   1.001
  SC09                       2.59       0.00       0.00       0.00       2.47       0.00       2.47        0.17     0.05   0.952
  SC010                     12.93       0.00       0.00       0.00      12.88       0.00      12.88        1.51     1.66   0.996
  
  
  ******************
  Node Depth Summary
  ******************
  
  ---------------------------------------------------------------------------------
                                 Average  Maximum  Maximum  Time of Max    Reported
                                   Depth    Depth      HGL   Occurrence   Max Depth
  Node                 Type       Meters   Meters   Meters  days hr:min      Meters
  ---------------------------------------------------------------------------------
  J1                   JUNCTION     0.05     0.60    34.60     0  16:01        0.55
  J3                   JUNCTION     0.10     0.17    18.17     0  16:45        0.17
  CSO7                 JUNCTION     0.15     1.20    35.20     0  13:55        1.20
  J5                   JUNCTION     0.05     0.30    32.30     0  14:01        0.30
  CSO9                 JUNCTION     0.06     0.21    40.21     0  16:16        0.21
  J8                   JUNCTION     0.06     0.16    36.16     0  16:19        0.16
  CSO8                 JUNCTION     0.22     2.00    34.00     0  14:01        2.00
  J10                  JUNCTION     0.08     0.59    29.59     0  15:56        0.59
  J13                  JUNCTION     0.05     0.55    29.55     0  14:01        0.52
  J15                  JUNCTION     0.15     0.92    15.92     0  16:07        0.91
  J16                  JUNCTION     0.04     0.63    30.63     0  16:01        0.57
  CSO10                JUNCTION     0.08     1.00    31.00     0  15:56        1.00
  J12                  JUNCTION     0.33     1.29    27.29     0  15:53        1.29
  J4                   JUNCTION     0.12     1.30    34.30     0  15:55        1.12
  J6                   JUNCTION     0.07     0.12    25.12     0  16:25        0.12
  J2                   JUNCTION     0.05     0.08    25.08     0  17:01        0.08
  J19                  JUNCTION     0.12     0.17     8.17     0  15:44        0.17
  J9                   JUNCTION     0.07     0.12    29.12     0  17:16        0.12
  J14                  JUNCTION     0.11     0.19    20.19     0  15:51        0.19
  J17                  JUNCTION     0.08     0.15    20.15     0  16:32        0.15
  J7                   JUNCTION     0.05     0.14    39.14     0  16:20        0.14
  J11                  JUNCTION     0.07     0.30    31.30     0  16:26        0.30
  J18                  JUNCTION     0.03     0.16    29.16     0  16:28        0.16
  Out_to_WWTP          OUTFALL      0.11     0.17     6.17     0  15:43        0.17
  T5                   STORAGE      1.67     5.00    32.00     0  16:06        5.00
  T4                   STORAGE      1.38     5.00    32.00     0  14:28        5.00
  T6                   STORAGE      0.34     1.28    32.28     0  17:12        1.28
  T3                   STORAGE      1.95     5.00    27.00     0  15:50        5.00
  T2                   STORAGE      1.37     5.00    26.00     0  14:08        5.00
  T1                   STORAGE      2.17     5.00    15.00     0  15:43        5.00
  
  
  *******************
  Node Inflow Summary
  *******************
  
  -------------------------------------------------------------------------------------------------
                                  Maximum  Maximum                  Lateral       Total        Flow
                                  Lateral    Total  Time of Max      Inflow      Inflow     Balance
                                   Inflow   Inflow   Occurrence      Volume      Volume       Error
  Node                 Type           CMS      CMS  days hr:min    10^6 ltr    10^6 ltr     Percent
  -------------------------------------------------------------------------------------------------
  J1                   JUNCTION     2.756    2.756     0  16:01        3.11        3.11       0.023
  J3                   JUNCTION     0.000    0.309     0  16:53           0        11.9       0.358
  CSO7                 JUNCTION     0.571    0.571     0  14:01        2.07        2.07      -0.010
  J5                   JUNCTION     0.818    0.886     0  14:01        2.43        3.71      -0.003
  CSO9                 JUNCTION     0.059    0.059     0  16:16       0.552       0.552       0.022
  J8                   JUNCTION     0.201    0.243     0  16:16        2.61        3.16      -0.015
  CSO8                 JUNCTION     5.150    5.150     0  15:56        11.3        11.3      -0.037
  J10                  JUNCTION     4.433    4.919     0  15:56         7.8        13.3      -0.139
  J13                  JUNCTION     4.819    4.819     0  14:01        8.16        8.16      -0.209
  J15                  JUNCTION     0.000    6.865     0  16:01           0        22.5       0.475
  J16                  JUNCTION     6.311    6.311     0  16:01        5.35        5.35      -0.095
  CSO10                JUNCTION     1.665    1.665     0  16:01        1.78        1.78      -0.032
  J12                  JUNCTION     0.000    3.937     0  15:56           0        16.5       0.131
  J4                   JUNCTION     0.000    0.085     0  15:53           0        1.28      -0.052
  J6                   JUNCTION     0.000    0.080     0  14:28           0         2.6       0.137
  J2                   JUNCTION     0.000    0.039     0  16:06           0        1.57       0.311
  J19                  JUNCTION     0.000    0.271     0  15:43           0        12.3       0.103
  J9                   JUNCTION     0.000    0.088     0  17:12           0        3.15       0.010
  J14                  JUNCTION     0.000    0.190     0  15:50           0         7.7       0.123
  J17                  JUNCTION     0.000    0.140     0  14:09           0        4.37       0.174
  J7                   JUNCTION     0.000    0.056     0  16:17           0       0.552       0.206
  J11                  JUNCTION     0.000    0.487     0  16:25           0        5.54       0.194
  J18                  JUNCTION     0.000    0.202     0  16:28           0        1.01       0.061
  Out_to_WWTP          OUTFALL      0.000    0.271     0  15:45           0        12.3       0.000
  T5                   STORAGE      0.000    2.653     0  16:01           0        3.11       9.068
  T4                   STORAGE      0.000    0.819     0  14:01           0        3.71       0.804
  T6                   STORAGE      0.000    0.234     0  16:19           0        3.16       0.162
  T3                   STORAGE      0.000    3.894     0  15:57           0        16.5       7.387
  T2                   STORAGE      0.000    4.505     0  14:01           0        8.18       1.379
  T1                   STORAGE      0.000    3.823     0  16:08           0        22.4       3.844
  
  
  **********************
  Node Surcharge Summary
  **********************
  
  Surcharging occurs when water rises above the top of the highest conduit.
  ---------------------------------------------------------------------
                                               Max. Height   Min. Depth
                                   Hours       Above Crown    Below Rim
  Node                 Type      Surcharged         Meters       Meters
  ---------------------------------------------------------------------
  CSO7                 JUNCTION        2.06          0.945        0.000
  CSO8                 JUNCTION        2.21          1.547        0.000
  CSO10                JUNCTION        0.62          0.560        0.000
  J4                   JUNCTION        1.97          0.996        0.704
  
  
  *********************
  Node Flooding Summary
  *********************
  
  Flooding refers to all water that overflows a node, whether it ponds or not.
  --------------------------------------------------------------------------
                                                             Total   Maximum
                                 Maximum   Time of Max       Flood    Ponded
                        Hours       Rate    Occurrence      Volume     Depth
  Node                 Flooded       CMS   days hr:min    10^6 ltr    Meters
  --------------------------------------------------------------------------
  CSO7                    1.72     0.490      0  14:01       0.788     0.000
  CSO8                    1.73     4.660      0  15:56       5.792     0.000
  CSO10                   0.54     1.462      0  16:01       0.776     0.000
  T5                      1.07     1.665      0  16:06       0.991     0.000
  T4                      2.05     0.471      0  16:01       1.031     0.000
  T3                      1.81     3.705      0  15:57       5.531     0.000
  T2                      1.86     2.233      0  15:56       3.561     0.000
  T1                      7.94     3.553      0  16:08       8.632     0.000
  
  
  **********************
  Storage Volume Summary
  **********************
  
  --------------------------------------------------------------------------------------------------
                         Average     Avg  Evap Exfil       Maximum     Max    Time of Max    Maximum
                          Volume    Pcnt  Pcnt  Pcnt        Volume    Pcnt     Occurrence    Outflow
  Storage Unit           1000 m3    Full  Loss  Loss       1000 m3    Full    days hr:min        CMS
  --------------------------------------------------------------------------------------------------
  T5                       0.167      33     0     0         0.500     100       0  16:06      0.039
  T4                       0.138      28     0     0         0.500     100       0  14:28      0.080
  T6                       0.041       7     0     0         0.154      26       0  17:12      0.088
  T3                       1.015      39     0     0         2.600     100       0  15:50      0.190
  T2                       0.275      27     0     0         1.000     100       0  14:08      0.140
  T1                       0.304      43     0     0         0.700     100       0  15:43      0.271
  
  
  ***********************
  Outfall Loading Summary
  ***********************
  
  -----------------------------------------------------------
                         Flow       Avg       Max       Total
                         Freq      Flow      Flow      Volume
  Outfall Node           Pcnt       CMS       CMS    10^6 ltr
  -----------------------------------------------------------
  Out_to_WWTP           99.43     0.145     0.271      12.265
  -----------------------------------------------------------
  System                99.43     0.145     0.271      12.265
  
  
  ********************
  Link Flow Summary
  ********************
  
  -----------------------------------------------------------------------------
                                 Maximum  Time of Max   Maximum    Max/    Max/
                                  |Flow|   Occurrence   |Veloc|    Full    Full
  Link                 Type          CMS  days hr:min     m/sec    Flow   Depth
  -----------------------------------------------------------------------------
  C1                   CONDUIT     0.039     0  17:01      0.69    0.01    0.13
  C6                   CONDUIT     0.076     0  14:11      1.29    1.21    1.00
  C2                   CONDUIT     0.080     0  14:59      1.70    0.09    0.25
  C9                   CONDUIT     0.051     0  16:20      1.02    0.17    0.30
  C16                  CONDUIT     0.486     0  16:19      1.86    0.05    0.22
  C3                   CONDUIT     0.190     0  16:06      2.04    0.07    0.18
  C19                  CONDUIT     0.140     0  14:42      1.69    0.05    0.53
  C11                  CONDUIT     0.309     0  16:45      1.84    0.02    0.27
  C20                  CONDUIT     6.238     0  16:01      7.95    0.20    0.34
  C22                  CONDUIT     0.202     0  16:28      1.35    0.09    0.60
  C12                  CONDUIT     0.088     0  17:16      0.91    0.01    0.34
  C17                  CONDUIT     3.889     0  15:56      4.18    0.19    0.45
  C10                  CONDUIT     0.234     0  16:19      0.94    0.02    0.46
  C13                  CONDUIT     3.894     0  15:57      1.48    0.23    0.82
  C18                  CONDUIT     4.505     0  14:01      5.28    0.17    0.64
  C23                  CONDUIT     3.823     0  16:08      2.51    0.42    0.81
  C4                   CONDUIT     2.653     0  16:01      3.98    0.64    0.80
  C7                   CONDUIT     0.819     0  14:01      1.73    0.20    0.65
  C14                  CONDUIT     0.271     0  15:45      2.08    0.02    0.09
  C5                   CONDUIT     0.085     0  15:53      1.82    1.46    1.00
  C8                   CONDUIT     0.056     0  16:17      1.33    0.71    0.54
  C15                  CONDUIT     0.487     0  16:25      3.70    1.55    0.83
  C21                  CONDUIT     0.202     0  16:28      2.04    1.16    0.69
  V4                   ORIFICE     0.080     0  14:28                      1.00
  V5                   ORIFICE     0.039     0  16:06                      1.00
  V1                   ORIFICE     0.271     0  15:43                      1.00
  V6                   ORIFICE     0.088     0  17:12                      1.00
  V3                   ORIFICE     0.190     0  15:50                      1.00
  V2                   ORIFICE     0.140     0  14:09                      1.00
  
  
  ***************************
  Flow Classification Summary
  ***************************
  
  -------------------------------------------------------------------------------------
                      Adjusted    ---------- Fraction of Time in Flow Class ---------- 
                       /Actual         Up    Down  Sub   Sup   Up    Down  Norm  Inlet 
  Conduit               Length    Dry  Dry   Dry   Crit  Crit  Crit  Crit  Ltd   Ctrl  
  -------------------------------------------------------------------------------------
  C1                      1.00   0.00  0.00  0.00  0.93  0.07  0.00  0.00  0.97  0.00
  C6                      1.00   0.00  0.00  0.00  0.10  0.90  0.00  0.00  0.00  0.00
  C2                      1.00   0.00  0.00  0.00  0.15  0.85  0.00  0.00  0.97  0.00
  C9                      1.00   0.00  0.00  0.00  1.00  0.00  0.00  0.00  1.00  0.00
  C16                     1.00   0.00  0.25  0.00  0.53  0.22  0.00  0.00  0.44  0.00
  C3                      1.00   0.00  0.00  0.00  0.04  0.96  0.00  0.00  0.07  0.00
  C19                     1.00   0.00  0.00  0.00  0.81  0.19  0.00  0.00  1.00  0.00
  C11                     1.00   0.00  0.00  0.00  0.06  0.94  0.00  0.00  1.00  0.00
  C20                     1.00   0.00  0.00  0.00  0.94  0.06  0.00  0.00  0.99  0.00
  C22                     1.00   0.00  0.00  0.00  1.00  0.00  0.00  0.00  1.00  0.00
  C12                     1.00   0.00  0.00  0.00  0.46  0.53  0.00  0.00  0.91  0.00
  C17                     1.00   0.00  0.00  0.00  0.62  0.38  0.00  0.00  0.98  0.00
  C10                     1.00   0.00  0.00  0.00  0.75  0.25  0.00  0.00  0.98  0.00
  C13                     1.00   0.00  0.00  0.00  0.76  0.24  0.00  0.00  0.57  0.00
  C18                     1.00   0.00  0.00  0.00  0.60  0.40  0.00  0.00  0.98  0.00
  C23                     1.00   0.00  0.00  0.00  0.80  0.20  0.00  0.00  0.95  0.00
  C4                      1.00   0.00  0.00  0.00  0.82  0.18  0.00  0.00  0.97  0.00
  C7                      1.00   0.00  0.00  0.00  0.73  0.27  0.00  0.00  0.83  0.00
  C14                     1.00   0.00  0.00  0.00  0.00  1.00  0.00  0.00  0.25  0.00
  C5                      1.00   0.00  0.00  0.00  0.94  0.06  0.00  0.00  0.90  0.00
  C8                      1.00   0.00  0.00  0.00  0.22  0.78  0.00  0.00  0.00  0.00
  C15                     1.00   0.25  0.00  0.00  0.00  0.75  0.00  0.00  0.00  0.00
  C21                     1.00   0.00  0.00  0.00  0.00  1.00  0.00  0.00  0.00  0.00
  
  
  *************************
  Conduit Surcharge Summary
  *************************
  
  ----------------------------------------------------------------------------
                                                           Hours        Hours 
                         --------- Hours Full --------   Above Full   Capacity
  Conduit                Both Ends  Upstream  Dnstream   Normal Flow   Limited
  ----------------------------------------------------------------------------
  C6                          0.01      1.97      0.02      1.70         0.01
  C22                         0.01      0.01      0.13      0.01         0.01
  C13                         0.01      0.01      9.20      0.01         0.01
  C18                         0.01      0.01      7.17      0.01         0.01
  C23                         0.01      0.01      9.48      0.01         0.01
  C4                          0.01      0.01     10.00      0.01         0.01
  C7                          0.01      0.01      8.57      0.01         0.01
  C5                          1.94      2.06      2.15      2.02         1.84
  C15                         0.01      2.21      0.01      2.28         0.01
  C21                         0.01      0.62      0.01      0.60         0.01
  

  Analysis begun on:  Mon Sep 20 16:28:50 2021
  Analysis ended on:  Mon Sep 20 16:28:51 2021
  Total elapsed time: 00:00:01