
  EPA STORM WATER MANAGEMENT MODEL - VERSION 5.1 (Build 5.3.0.dev0)
  --------------------------------------------------------------

  WARNING 09: time series interval greater than recording interval for Rain Gage RG1
  WARNING 09: time series interval greater than recording interval for Rain Gage RG2
  WARNING 09: time series interval greater than recording interval for Rain Gage RG3
  WARNING 09: time series interval greater than recording interval for Rain Gage RG4
  
  *********************************************************
  NOTE: The summary statistics displayed in this report are
  based on results found at every computational time step,  
  not just on results from each reporting time step.
  *********************************************************
  
  ****************
  Analysis Options
  ****************
  Flow Units ............... CMS
  Process Models:
    Rainfall/Runoff ........ YES
    RDII ................... NO
    Snowmelt ............... NO
    Groundwater ............ NO
    Flow Routing ........... YES
    Ponding Allowed ........ YES
    Water Quality .......... NO
  Infiltration Method ...... HORTON
  Flow Routing Method ...... DYNWAVE
  Surcharge Method ......... EXTRAN
  Starting Date ............ 08/28/2015 00:00:00
  Ending Date .............. 08/28/2015 23:40:00
  Antecedent Dry Days ...... 0.0
  Report Time Step ......... 00:01:00
  Wet Time Step ............ 00:01:00
  Dry Time Step ............ 00:01:00
  Routing Time Step ........ 5.00 sec
  Variable Time Step ....... YES
  Maximum Trials ........... 8
  Number of Threads ........ 1
  Head Tolerance ........... 0.001500 m
  
  
  **************************        Volume         Depth
  Runoff Quantity Continuity     hectare-m            mm
  **************************     ---------       -------
  Total Precipitation ......         3.680        20.423
  Evaporation Loss .........         0.000         0.000
  Infiltration Loss ........         0.000         0.000
  Surface Runoff ...........         3.603        19.992
  Final Storage ............         0.081         0.449
  Continuity Error (%) .....        -0.085
  
  
  **************************        Volume        Volume
  Flow Routing Continuity        hectare-m      10^6 ltr
  **************************     ---------     ---------
  Dry Weather Inflow .......         0.758         7.576
  Wet Weather Inflow .......         3.602        36.019
  Groundwater Inflow .......         0.000         0.000
  RDII Inflow ..............         0.000         0.000
  External Inflow ..........         0.000         0.000
  External Outflow .........         1.996        19.965
  Flooding Loss ............         1.681        16.813
  Evaporation Loss .........         0.000         0.000
  Exfiltration Loss ........         0.000         0.000
  Initial Stored Volume ....         0.000         0.000
  Final Stored Volume ......         0.536         5.358
  Continuity Error (%) .....         3.346
  
  
  *************************
  Highest Continuity Errors
  *************************
  Node T5 (7.94%)
  Node T3 (7.15%)
  Node T1 (2.30%)
  Node J12 (1.89%)
  Node T6 (1.01%)
  
  
  ***************************
  Time-Step Critical Elements
  ***************************
  None
  
  
  ********************************
  Highest Flow Instability Indexes
  ********************************
  Link C15 (1)
  Link C20 (1)
  
  
  *************************
  Routing Time Step Summary
  *************************
  Minimum Time Step           :     4.50 sec
  Average Time Step           :     5.00 sec
  Maximum Time Step           :     5.00 sec
  Percent in Steady State     :     0.00
  Average Iterations per Step :     2.15
  Percent Not Converging      :     1.11
  
  
  ***************************
  Subcatchment Runoff Summary
  ***************************
  
  ------------------------------------------------------------------------------------------------------------------------------
                            Total      Total      Total      Total     Imperv       Perv      Total       Total     Peak  Runoff
                           Precip      Runon       Evap      Infil     Runoff     Runoff     Runoff      Runoff   Runoff   Coeff
  Subcatchment                 mm         mm         mm         mm         mm         mm         mm    10^6 ltr      CMS
  ------------------------------------------------------------------------------------------------------------------------------
  SC01                      24.51       0.00       0.00       0.00      24.14       0.00      24.14        7.97     0.65   0.985
  SC02                      19.53       0.00       0.00       0.00      19.15       0.00      19.15        4.36     0.47   0.980
  SC03                      17.80       0.00       0.00       0.00      17.57       0.00      17.57        3.16     0.42   0.987
  SC04                      19.53       0.00       0.00       0.00      18.87       0.00      18.87        1.30     0.12   0.966
  SC05                      24.51       0.00       0.00       0.00      24.11       0.00      24.11        3.76     0.30   0.984
  SC06                      18.01       0.00       0.00       0.00      17.46       0.00      17.46        5.68     0.45   0.969
  SC07                      19.53       0.00       0.00       0.00      18.87       0.00      18.87        0.90     0.09   0.966
  SC08                      17.80       0.00       0.00       0.00      17.36       0.00      17.36        4.86     0.53   0.975
  SC09                      18.01       0.00       0.00       0.00      17.63       0.00      17.63        1.22     0.11   0.979
  SC010                     24.51       0.00       0.00       0.00      24.03       0.00      24.03        2.82     0.22   0.980
  
  
  ******************
  Node Depth Summary
  ******************
  
  ---------------------------------------------------------------------------------
                                 Average  Maximum  Maximum  Time of Max    Reported
                                   Depth    Depth      HGL   Occurrence   Max Depth
  Node                 Type       Meters   Meters   Meters  days hr:min      Meters
  ---------------------------------------------------------------------------------
  J1                   JUNCTION     0.07     0.18    34.18     0  04:31        0.18
  J3                   JUNCTION     0.14     0.17    18.17     0  09:54        0.17
  CSO7                 JUNCTION     0.11     1.20    35.20     0  04:12        1.20
  J5                   JUNCTION     0.06     0.15    32.15     0  04:37        0.15
  CSO9                 JUNCTION     0.11     1.76    41.76     0  04:16        1.73
  J8                   JUNCTION     0.10     0.24    36.24     0  04:22        0.24
  CSO8                 JUNCTION     0.15     2.00    34.00     0  04:10        2.00
  J10                  JUNCTION     0.09     0.27    29.27     0  04:22        0.27
  J13                  JUNCTION     0.06     0.18    29.18     0  04:36        0.18
  J15                  JUNCTION     0.21     0.34    15.34     0  04:33        0.34
  J16                  JUNCTION     0.07     0.19    30.19     0  04:31        0.19
  CSO10                JUNCTION     0.14     1.00    31.00     0  04:06        1.00
  J12                  JUNCTION     0.64     1.02    27.02     0  09:24        1.01
  J4                   JUNCTION     0.12     1.21    34.21     0  04:12        0.88
  J6                   JUNCTION     0.08     0.11    25.11     0  05:24        0.11
  J2                   JUNCTION     0.07     0.08    25.08     0  07:13        0.08
  J19                  JUNCTION     0.15     0.17     8.17     0  04:13        0.17
  J9                   JUNCTION     0.12     0.16    29.16     0  05:27        0.16
  J14                  JUNCTION     0.16     0.19    20.19     0  18:04        0.19
  J17                  JUNCTION     0.09     0.14    20.14     0  05:12        0.14
  J7                   JUNCTION     0.08     0.20    39.20     0  04:22        0.20
  J11                  JUNCTION     0.10     0.29    31.29     0  04:22        0.29
  J18                  JUNCTION     0.06     0.16    29.16     0  04:32        0.16
  Out_to_WWTP          OUTFALL      0.15     0.17     6.17     0  04:12        0.17
  T5                   STORAGE      3.95     5.00    32.00     0  04:49        5.00
  T4                   STORAGE      1.21     3.32    30.32     0  05:22        3.32
  T6                   STORAGE      2.13     5.00    36.00     0  04:57        5.00
  T3                   STORAGE      3.88     5.00    27.00     0  09:21        5.00
  T2                   STORAGE      1.20     3.32    24.32     0  05:11        3.32
  T1                   STORAGE      4.23     5.00    15.00     0  04:11        5.00
  
  
  *******************
  Node Inflow Summary
  *******************
  
  -------------------------------------------------------------------------------------------------
                                  Maximum  Maximum                  Lateral       Total        Flow
                                  Lateral    Total  Time of Max      Inflow      Inflow     Balance
                                   Inflow   Inflow   Occurrence      Volume      Volume       Error
  Node                 Type           CMS      CMS  days hr:min    10^6 ltr    10^6 ltr     Percent
  -------------------------------------------------------------------------------------------------
  J1                   JUNCTION     0.311    0.311     0  04:31        4.85        4.85       0.036
  J3                   JUNCTION     0.000    0.282     0  09:52           0        18.9       0.234
  CSO7                 JUNCTION     0.089    0.089     0  04:36        1.46        1.46       0.029
  J5                   JUNCTION     0.126    0.196     0  04:36        1.55           3       0.061
  CSO9                 JUNCTION     0.113    0.113     0  04:16         1.6         1.6       0.020
  J8                   JUNCTION     0.459    0.555     0  04:21        7.51        9.11       0.045
  CSO8                 JUNCTION     0.526    0.526     0  04:21        5.31        5.31       0.013
  J10                  JUNCTION     0.422    0.830     0  04:21        3.91         9.2       0.094
  J13                  JUNCTION     0.477    0.477     0  04:36        5.26        5.26      -0.056
  J15                  JUNCTION     0.000    1.093     0  04:32           0        36.2       0.315
  J16                  JUNCTION     0.661    0.661     0  04:31        9.04        9.04       0.023
  CSO10                JUNCTION     0.220    0.220     0  04:31        3.09        3.09       0.001
  J12                  JUNCTION     0.000    0.906     0  04:23           0        17.9       1.925
  J4                   JUNCTION     0.000    0.079     0  04:11           0        1.45       0.200
  J6                   JUNCTION     0.000    0.065     0  05:22           0        2.94       0.106
  J2                   JUNCTION     0.000    0.039     0  04:49           0         2.8       0.189
  J19                  JUNCTION     0.000    0.271     0  04:11           0          20       0.063
  J9                   JUNCTION     0.000    0.175     0  04:57           0        8.76       0.121
  J14                  JUNCTION     0.000    0.190     0  09:21           0        13.2       0.074
  J17                  JUNCTION     0.000    0.114     0  05:11           0        5.15       0.129
  J7                   JUNCTION     0.000    0.113     0  04:16           0         1.6       0.184
  J11                  JUNCTION     0.000    0.484     0  04:22           0         5.3       0.238
  J18                  JUNCTION     0.000    0.202     0  04:32           0        3.09       0.117
  Out_to_WWTP          OUTFALL      0.000    0.271     0  04:13           0          20       0.000
  T5                   STORAGE      0.000    0.288     0  04:31           0        4.85       8.621
  T4                   STORAGE      0.000    0.189     0  04:37           0           3       0.699
  T6                   STORAGE      0.000    0.532     0  04:22           0         9.1       1.016
  T3                   STORAGE      0.000    0.882     0  04:28           0        17.6       7.704
  T2                   STORAGE      0.000    0.442     0  04:36           0        5.27       0.896
  T1                   STORAGE      0.000    1.021     0  04:34           0          36       2.350
  
  
  **********************
  Node Surcharge Summary
  **********************
  
  Surcharging occurs when water rises above the top of the highest conduit.
  ---------------------------------------------------------------------
                                               Max. Height   Min. Depth
                                   Hours       Above Crown    Below Rim
  Node                 Type      Surcharged         Meters       Meters
  ---------------------------------------------------------------------
  CSO7                 JUNCTION        0.84          0.945        0.000
  CSO9                 JUNCTION        0.51          1.446        0.236
  CSO8                 JUNCTION        0.53          1.547        0.000
  CSO10                JUNCTION        0.32          0.560        0.000
  J4                   JUNCTION        0.81          0.908        0.792
  
  
  *********************
  Node Flooding Summary
  *********************
  
  Flooding refers to all water that overflows a node, whether it ponds or not.
  --------------------------------------------------------------------------
                                                             Total   Maximum
                                 Maximum   Time of Max       Flood    Ponded
                        Hours       Rate    Occurrence      Volume     Depth
  Node                 Flooded       CMS   days hr:min    10^6 ltr    Meters
  --------------------------------------------------------------------------
  CSO7                    0.38     0.019      0  04:36       0.009     0.000
  CSO8                    0.05     0.062      0  04:10       0.003     0.000
  CSO10                   0.03     0.034      0  04:31       0.002     0.000
  T5                      7.21     0.240      0  15:37       1.285     0.000
  T6                      0.50     0.224      0  04:57       0.176     0.000
  T3                      2.83     0.281      0  09:27       0.802     0.000
  T1                     19.47     0.750      0  04:34      14.537     0.000
  
  
  **********************
  Storage Volume Summary
  **********************
  
  --------------------------------------------------------------------------------------------------
                         Average     Avg  Evap Exfil       Maximum     Max    Time of Max    Maximum
                          Volume    Pcnt  Pcnt  Pcnt        Volume    Pcnt     Occurrence    Outflow
  Storage Unit           1000 m3    Full  Loss  Loss       1000 m3    Full    days hr:min        CMS
  --------------------------------------------------------------------------------------------------
  T5                       0.395      79     0     0         0.500     100       0  04:49      0.039
  T4                       0.121      24     0     0         0.332      66       0  05:22      0.065
  T6                       0.255      43     0     0         0.600     100       0  04:57      0.175
  T3                       2.016      78     0     0         2.600     100       0  09:21      0.190
  T2                       0.240      24     0     0         0.663      66       0  05:11      0.114
  T1                       0.592      85     0     0         0.700     100       0  04:11      0.271
  
  
  ***********************
  Outfall Loading Summary
  ***********************
  
  -----------------------------------------------------------
                         Flow       Avg       Max       Total
                         Freq      Flow      Flow      Volume
  Outfall Node           Pcnt       CMS       CMS    10^6 ltr
  -----------------------------------------------------------
  Out_to_WWTP           99.43     0.236     0.271      19.965
  -----------------------------------------------------------
  System                99.43     0.236     0.271      19.965
  
  
  ********************
  Link Flow Summary
  ********************
  
  -----------------------------------------------------------------------------
                                 Maximum  Time of Max   Maximum    Max/    Max/
                                  |Flow|   Occurrence   |Veloc|    Full    Full
  Link                 Type          CMS  days hr:min     m/sec    Flow   Depth
  -----------------------------------------------------------------------------
  C1                   CONDUIT     0.039     0  07:13      0.77    0.01    0.12
  C6                   CONDUIT     0.071     0  04:37      1.29    1.13    0.74
  C2                   CONDUIT     0.065     0  05:24      1.35    0.07    0.23
  C9                   CONDUIT     0.102     0  04:22      1.22    0.35    0.44
  C16                  CONDUIT     0.456     0  04:23      1.73    0.04    0.14
  C3                   CONDUIT     0.190     0  09:23      2.09    0.07    0.18
  C19                  CONDUIT     0.114     0  05:12      1.14    0.04    0.23
  C11                  CONDUIT     0.282     0  09:54      1.86    0.01    0.12
  C20                  CONDUIT     0.608     0  04:31      2.71    0.02    0.13
  C22                  CONDUIT     0.192     0  04:32      1.46    0.09    0.31
  C12                  CONDUIT     0.175     0  05:27      1.44    0.01    0.29
  C17                  CONDUIT     0.782     0  04:22      2.83    0.04    0.29
  C10                  CONDUIT     0.532     0  04:22      0.98    0.05    0.58
  C13                  CONDUIT     0.882     0  04:28      1.25    0.05    0.75
  C18                  CONDUIT     0.442     0  04:36      1.20    0.02    0.54
  C23                  CONDUIT     1.021     0  04:34      1.09    0.11    0.61
  C4                   CONDUIT     0.288     0  04:31      1.13    0.07    0.59
  C7                   CONDUIT     0.189     0  04:37      0.99    0.05    0.57
  C14                  CONDUIT     0.271     0  04:13      2.08    0.02    0.09
  C5                   CONDUIT     0.079     0  04:11      1.53    1.34    1.00
  C8                   CONDUIT     0.113     0  04:16      1.70    1.43    0.82
  C15                  CONDUIT     0.484     0  04:22      3.48    1.54    0.82
  C21                  CONDUIT     0.202     0  04:32      1.84    1.15    0.68
  V4                   ORIFICE     0.065     0  05:22                      1.00
  V5                   ORIFICE     0.039     0  04:49                      1.00
  V1                   ORIFICE     0.271     0  04:11                      1.00
  V6                   ORIFICE     0.175     0  04:57                      1.00
  V3                   ORIFICE     0.190     0  09:21                      1.00
  V2                   ORIFICE     0.114     0  05:11                      1.00
  
  
  ***************************
  Flow Classification Summary
  ***************************
  
  -------------------------------------------------------------------------------------
                      Adjusted    ---------- Fraction of Time in Flow Class ---------- 
                       /Actual         Up    Down  Sub   Sup   Up    Down  Norm  Inlet 
  Conduit               Length    Dry  Dry   Dry   Crit  Crit  Crit  Crit  Ltd   Ctrl  
  -------------------------------------------------------------------------------------
  C1                      1.00   0.00  0.00  0.00  0.92  0.08  0.00  0.00  0.97  0.00
  C6                      1.00   0.00  0.00  0.00  0.05  0.95  0.00  0.00  0.00  0.00
  C2                      1.00   0.00  0.00  0.00  0.48  0.52  0.00  0.00  0.97  0.00
  C9                      1.00   0.00  0.00  0.00  1.00  0.00  0.00  0.00  1.00  0.00
  C16                     1.00   0.00  0.04  0.00  0.19  0.77  0.00  0.00  0.12  0.00
  C3                      1.00   0.00  0.00  0.00  0.04  0.96  0.00  0.00  0.06  0.00
  C19                     1.00   0.00  0.00  0.00  0.98  0.02  0.00  0.00  1.00  0.00
  C11                     1.00   0.00  0.00  0.00  0.15  0.85  0.00  0.00  1.00  0.00
  C20                     1.00   0.00  0.00  0.00  0.67  0.33  0.00  0.00  0.99  0.00
  C22                     1.00   0.00  0.00  0.00  0.95  0.05  0.00  0.00  1.00  0.00
  C12                     1.00   0.00  0.00  0.00  0.94  0.06  0.00  0.00  0.99  0.00
  C17                     1.00   0.00  0.00  0.00  0.79  0.21  0.00  0.00  0.99  0.00
  C10                     1.00   0.00  0.00  0.00  0.91  0.09  0.00  0.00  0.98  0.00
  C13                     1.00   0.00  0.00  0.00  0.91  0.09  0.00  0.00  0.18  0.00
  C18                     1.00   0.00  0.00  0.00  0.91  0.09  0.00  0.00  0.98  0.00
  C23                     1.00   0.00  0.00  0.00  0.92  0.08  0.00  0.00  0.96  0.00
  C4                      1.00   0.00  0.00  0.00  0.93  0.07  0.00  0.00  0.98  0.00
  C7                      1.00   0.00  0.00  0.00  0.87  0.13  0.00  0.00  0.92  0.00
  C14                     1.00   0.00  0.00  0.00  0.00  1.00  0.00  0.00  0.03  0.00
  C5                      1.00   0.00  0.00  0.00  0.86  0.14  0.00  0.00  0.95  0.00
  C8                      1.00   0.00  0.00  0.00  0.07  0.93  0.00  0.00  0.00  0.00
  C15                     1.00   0.04  0.00  0.00  0.00  0.96  0.00  0.00  0.00  0.00
  C21                     1.00   0.00  0.00  0.00  0.01  0.99  0.00  0.00  0.00  0.00
  
  
  *************************
  Conduit Surcharge Summary
  *************************
  
  ----------------------------------------------------------------------------
                                                           Hours        Hours 
                         --------- Hours Full --------   Above Full   Capacity
  Conduit                Both Ends  Upstream  Dnstream   Normal Flow   Limited
  ----------------------------------------------------------------------------
  C6                          0.01      0.81      0.01      0.61         0.01
  C10                         0.01      0.01     13.18      0.01         0.01
  C13                         0.01      0.01     19.21      0.01         0.01
  C18                         0.01      0.01      6.71      0.01         0.01
  C23                         0.01      0.01     20.03      0.01         0.01
  C4                          0.01      0.01     19.98      0.01         0.01
  C7                          0.01      0.01     10.21      0.01         0.01
  C5                          0.81      0.84      0.95      0.83         0.75
  C8                          0.01      0.51      0.01      0.51         0.01
  C15                         0.01      0.53      0.01      0.57         0.01
  C21                         0.01      0.33      0.01      0.25         0.01
  

  Analysis begun on:  Mon Sep 20 16:51:49 2021
  Analysis ended on:  Mon Sep 20 16:51:49 2021
  Total elapsed time: < 1 sec