
  EPA STORM WATER MANAGEMENT MODEL - VERSION 5.1 (Build 5.3.0.dev0)
  --------------------------------------------------------------

  
  *********************************************************
  NOTE: The summary statistics displayed in this report are
  based on results found at every computational time step,  
  not just on results from each reporting time step.
  *********************************************************
  
  ****************
  Analysis Options
  ****************
  Flow Units ............... CMS
  Process Models:
    Rainfall/Runoff ........ YES
    RDII ................... NO
    Snowmelt ............... NO
    Groundwater ............ NO
    Flow Routing ........... YES
    Ponding Allowed ........ YES
    Water Quality .......... NO
  Infiltration Method ...... HORTON
  Flow Routing Method ...... DYNWAVE
  Surcharge Method ......... EXTRAN
  Starting Date ............ 08/28/2015 08:00:00
  Ending Date .............. 08/28/2015 15:50:00
  Antecedent Dry Days ...... 0.0
  Report Time Step ......... 00:01:00
  Wet Time Step ............ 00:01:00
  Dry Time Step ............ 00:01:00
  Routing Time Step ........ 5.00 sec
  Variable Time Step ....... YES
  Maximum Trials ........... 8
  Number of Threads ........ 1
  Head Tolerance ........... 0.001500 m
  
  
  **************************        Volume         Depth
  Runoff Quantity Continuity     hectare-m            mm
  **************************     ---------       -------
  Total Precipitation ......         0.664         3.685
  Evaporation Loss .........         0.000         0.000
  Infiltration Loss ........         0.000         0.000
  Surface Runoff ...........         0.642         3.560
  Final Storage ............         0.023         0.125
  Continuity Error (%) .....        -0.008
  
  
  **************************        Volume        Volume
  Flow Routing Continuity        hectare-m      10^6 ltr
  **************************     ---------     ---------
  Dry Weather Inflow .......         0.396         3.955
  Wet Weather Inflow .......         0.642         6.415
  Groundwater Inflow .......         0.000         0.000
  RDII Inflow ..............         0.000         0.000
  External Inflow ..........         0.000         0.000
  External Outflow .........         0.403         4.025
  Flooding Loss ............         0.040         0.396
  Evaporation Loss .........         0.000         0.000
  Exfiltration Loss ........         0.000         0.000
  Initial Stored Volume ....         0.000         0.000
  Final Stored Volume ......         0.496         4.958
  Continuity Error (%) .....         9.558
  
  
  *************************
  Highest Continuity Errors
  *************************
  Node T6 (33.91%)
  Node T2 (29.02%)
  Node T4 (26.39%)
  Node T3 (25.58%)
  Node T5 (22.13%)
  
  
  ***************************
  Time-Step Critical Elements
  ***************************
  None
  
  
  ********************************
  Highest Flow Instability Indexes
  ********************************
  All links are stable.
  
  
  *************************
  Routing Time Step Summary
  *************************
  Minimum Time Step           :     4.50 sec
  Average Time Step           :     5.00 sec
  Maximum Time Step           :     5.00 sec
  Percent in Steady State     :     0.00
  Average Iterations per Step :     2.00
  Percent Not Converging      :     0.00
  
  
  ***************************
  Subcatchment Runoff Summary
  ***************************
  
  ------------------------------------------------------------------------------------------------------------------------------
                            Total      Total      Total      Total     Imperv       Perv      Total       Total     Peak  Runoff
                           Precip      Runon       Evap      Infil     Runoff     Runoff     Runoff      Runoff   Runoff   Coeff
  Subcatchment                 mm         mm         mm         mm         mm         mm         mm    10^6 ltr      CMS
  ------------------------------------------------------------------------------------------------------------------------------
  SC01                       3.69       0.00       0.00       0.00       3.60       0.00       3.60        1.19     0.26   0.977
  SC02                       3.69       0.00       0.00       0.00       3.60       0.00       3.60        0.82     0.18   0.976
  SC03                       3.69       0.00       0.00       0.00       3.62       0.00       3.62        0.65     0.15   0.981
  SC04                       3.69       0.00       0.00       0.00       3.50       0.00       3.50        0.24     0.05   0.950
  SC05                       3.69       0.00       0.00       0.00       3.59       0.00       3.59        0.56     0.12   0.975
  SC06                       3.69       0.00       0.00       0.00       3.46       0.00       3.46        1.12     0.20   0.938
  SC07                       3.69       0.00       0.00       0.00       3.50       0.00       3.50        0.17     0.03   0.950
  SC08                       3.69       0.00       0.00       0.00       3.57       0.00       3.57        1.00     0.21   0.969
  SC09                       3.69       0.00       0.00       0.00       3.55       0.00       3.55        0.24     0.05   0.963
  SC010                      3.69       0.00       0.00       0.00       3.58       0.00       3.58        0.42     0.09   0.970
  
  
  ******************
  Node Depth Summary
  ******************
  
  ---------------------------------------------------------------------------------
                                 Average  Maximum  Maximum  Time of Max    Reported
                                   Depth    Depth      HGL   Occurrence   Max Depth
  Node                 Type       Meters   Meters   Meters  days hr:min      Meters
  ---------------------------------------------------------------------------------
  J1                   JUNCTION     0.07     0.13    34.13     0  03:01        0.13
  J3                   JUNCTION     0.08     0.13    18.13     0  05:53        0.13
  CSO7                 JUNCTION     0.09     0.16    34.16     0  03:01        0.16
  J5                   JUNCTION     0.06     0.10    32.10     0  03:02        0.10
  CSO9                 JUNCTION     0.09     0.21    40.21     0  03:01        0.21
  J8                   JUNCTION     0.10     0.18    36.18     0  03:02        0.18
  CSO8                 JUNCTION     0.11     0.29    32.29     0  03:01        0.29
  J10                  JUNCTION     0.08     0.19    29.19     0  03:01        0.19
  J13                  JUNCTION     0.06     0.12    29.12     0  03:01        0.12
  J15                  JUNCTION     0.13     0.24    15.24     0  03:02        0.24
  J16                  JUNCTION     0.06     0.13    30.13     0  03:01        0.13
  CSO10                JUNCTION     0.10     0.25    30.25     0  03:01        0.25
  J12                  JUNCTION     0.10     0.21    26.21     0  03:03        0.21
  J4                   JUNCTION     0.11     0.19    33.19     0  03:03        0.19
  J6                   JUNCTION     0.05     0.06    25.06     0  07:11        0.06
  J2                   JUNCTION     0.06     0.07    25.07     0  04:45        0.07
  J19                  JUNCTION     0.12     0.16     8.16     0  03:34        0.16
  J9                   JUNCTION     0.06     0.14    29.14     0  04:31        0.14
  J14                  JUNCTION     0.07     0.16    20.16     0  05:50        0.16
  J17                  JUNCTION     0.05     0.11    20.11     0  05:22        0.11
  J7                   JUNCTION     0.07     0.15    39.15     0  03:02        0.15
  J11                  JUNCTION     0.08     0.20    31.20     0  03:02        0.20
  J18                  JUNCTION     0.05     0.11    29.11     0  03:02        0.11
  Out_to_WWTP          OUTFALL      0.12     0.16     6.16     0  03:34        0.16
  T5                   STORAGE      1.91     2.85    29.85     0  04:44        2.85
  T4                   STORAGE      1.84     2.94    29.94     0  06:36        2.94
  T6                   STORAGE      3.31     5.00    36.00     0  04:15        5.00
  T3                   STORAGE      1.68     2.69    24.69     0  07:06        2.69
  T2                   STORAGE      1.25     1.88    22.88     0  04:32        1.88
  T1                   STORAGE      1.75     3.44    13.44     0  03:33        3.44
  
  
  *******************
  Node Inflow Summary
  *******************
  
  -------------------------------------------------------------------------------------------------
                                  Maximum  Maximum                  Lateral       Total        Flow
                                  Lateral    Total  Time of Max      Inflow      Inflow     Balance
                                   Inflow   Inflow   Occurrence      Volume      Volume       Error
  Node                 Type           CMS      CMS  days hr:min    10^6 ltr    10^6 ltr     Percent
  -------------------------------------------------------------------------------------------------
  J1                   JUNCTION     0.144    0.144     0  03:01        1.12        1.12       0.063
  J3                   JUNCTION     0.000    0.179     0  05:50           0         1.8       1.937
  CSO7                 JUNCTION     0.044    0.044     0  03:01       0.457       0.457       0.098
  J5                   JUNCTION     0.051    0.091     0  03:01       0.369       0.822       0.209
  CSO9                 JUNCTION     0.057    0.057     0  03:01       0.441       0.441       0.100
  J8                   JUNCTION     0.242    0.296     0  03:01        2.07         2.5       0.239
  CSO8                 JUNCTION     0.218    0.218     0  03:01        1.29        1.29       0.042
  J10                  JUNCTION     0.164    0.372     0  03:01        1.04        2.32       0.241
  J13                  JUNCTION     0.196    0.196     0  03:01        1.29        1.29      -0.205
  J15                  JUNCTION     0.000    0.502     0  03:01           0        4.62       1.576
  J16                  JUNCTION     0.282    0.282     0  03:01        1.74        1.74       0.040
  CSO10                JUNCTION     0.093    0.093     0  03:01       0.559       0.559       0.076
  J12                  JUNCTION     0.000    0.402     0  03:01           0        2.96       0.381
  J4                   JUNCTION     0.000    0.043     0  03:01           0       0.456       0.825
  J6                   JUNCTION     0.000    0.016     0  06:10           0       0.314       0.847
  J2                   JUNCTION     0.000    0.030     0  04:44           0       0.633       0.653
  J19                  JUNCTION     0.000    0.224     0  03:33           0        4.03       0.205
  J9                   JUNCTION     0.000    0.135     0  04:30           0       0.655       1.135
  J14                  JUNCTION     0.000    0.137     0  05:50           0       0.865       0.786
  J17                  JUNCTION     0.000    0.085     0  04:40           0       0.555       0.391
  J7                   JUNCTION     0.000    0.057     0  03:01           0       0.441       0.732
  J11                  JUNCTION     0.000    0.218     0  03:01           0        1.29       0.452
  J18                  JUNCTION     0.000    0.093     0  03:01           0       0.559       0.208
  Out_to_WWTP          OUTFALL      0.000    0.224     0  03:34           0        4.03       0.000
  T5                   STORAGE      0.000    0.142     0  03:01           0        1.12      28.425
  T4                   STORAGE      0.000    0.090     0  03:02           0        0.82      35.860
  T6                   STORAGE      0.000    0.290     0  03:02           0         2.5      51.308
  T3                   STORAGE      0.000    0.393     0  03:03           0        2.95      34.367
  T2                   STORAGE      0.000    0.193     0  03:01           0        1.29      40.879
  T1                   STORAGE      0.000    0.493     0  03:02           0        4.54       6.815
  
  
  **********************
  Node Surcharge Summary
  **********************
  
  No nodes were surcharged.
  
  
  *********************
  Node Flooding Summary
  *********************
  
  Flooding refers to all water that overflows a node, whether it ponds or not.
  --------------------------------------------------------------------------
                                                             Total   Maximum
                                 Maximum   Time of Max       Flood    Ponded
                        Hours       Rate    Occurrence      Volume     Depth
  Node                 Flooded       CMS   days hr:min    10^6 ltr    Meters
  --------------------------------------------------------------------------
  T6                      3.33     0.078      0  04:15       0.396     0.000
  
  
  **********************
  Storage Volume Summary
  **********************
  
  --------------------------------------------------------------------------------------------------
                         Average     Avg  Evap Exfil       Maximum     Max    Time of Max    Maximum
                          Volume    Pcnt  Pcnt  Pcnt        Volume    Pcnt     Occurrence    Outflow
  Storage Unit           1000 m3    Full  Loss  Loss       1000 m3    Full    days hr:min        CMS
  --------------------------------------------------------------------------------------------------
  T5                       0.191      38     0     0         0.285      57       0  04:44      0.030
  T4                       0.184      37     0     0         0.294      59       0  06:36      0.016
  T6                       0.397      66     0     0         0.600     100       0  04:15      0.135
  T3                       0.874      34     0     0         1.398      54       0  07:06      0.137
  T2                       0.250      25     0     0         0.377      38       0  04:32      0.085
  T1                       0.245      35     0     0         0.482      69       0  03:33      0.224
  
  
  ***********************
  Outfall Loading Summary
  ***********************
  
  -----------------------------------------------------------
                         Flow       Avg       Max       Total
                         Freq      Flow      Flow      Volume
  Outfall Node           Pcnt       CMS       CMS    10^6 ltr
  -----------------------------------------------------------
  Out_to_WWTP           99.01     0.144     0.224       4.025
  -----------------------------------------------------------
  System                99.01     0.144     0.224       4.025
  
  
  ********************
  Link Flow Summary
  ********************
  
  -----------------------------------------------------------------------------
                                 Maximum  Time of Max   Maximum    Max/    Max/
                                  |Flow|   Occurrence   |Veloc|    Full    Full
  Link                 Type          CMS  days hr:min     m/sec    Flow   Depth
  -----------------------------------------------------------------------------
  C1                   CONDUIT     0.030     0  04:45      1.14    0.01    0.10
  C6                   CONDUIT     0.041     0  03:03      1.20    0.66    0.49
  C2                   CONDUIT     0.016     0  07:11      0.89    0.02    0.15
  C9                   CONDUIT     0.055     0  03:02      0.99    0.19    0.32
  C16                  CONDUIT     0.212     0  03:02      1.37    0.02    0.10
  C3                   CONDUIT     0.134     0  05:50      1.97    0.05    0.14
  C19                  CONDUIT     0.080     0  05:22      1.39    0.03    0.17
  C11                  CONDUIT     0.165     0  05:53      1.80    0.01    0.08
  C20                  CONDUIT     0.278     0  03:01      1.91    0.01    0.09
  C22                  CONDUIT     0.091     0  03:02      1.13    0.04    0.22
  C12                  CONDUIT     0.116     0  04:32      1.35    0.01    0.07
  C17                  CONDUIT     0.365     0  03:01      2.27    0.02    0.10
  C10                  CONDUIT     0.290     0  03:02      1.66    0.03    0.56
  C13                  CONDUIT     0.393     0  03:03      1.39    0.02    0.54
  C18                  CONDUIT     0.193     0  03:01      1.72    0.01    0.48
  C23                  CONDUIT     0.493     0  03:02      1.24    0.05    0.58
  C4                   CONDUIT     0.142     0  03:01      1.98    0.03    0.56
  C7                   CONDUIT     0.090     0  03:02      1.43    0.02    0.55
  C14                  CONDUIT     0.224     0  03:34      1.97    0.01    0.08
  C5                   CONDUIT     0.043     0  03:01      1.22    0.74    0.69
  C8                   CONDUIT     0.057     0  03:01      1.25    0.72    0.56
  C15                  CONDUIT     0.218     0  03:01      2.46    0.69    0.54
  C21                  CONDUIT     0.093     0  03:01      1.59    0.53    0.41
  V4                   ORIFICE     0.016     0  06:10                      0.26
  V5                   ORIFICE     0.030     0  04:44                      1.00
  V1                   ORIFICE     0.224     0  03:33                      1.00
  V6                   ORIFICE     0.135     0  04:30                      0.78
  V3                   ORIFICE     0.137     0  05:50                      1.00
  V2                   ORIFICE     0.085     0  04:40                      1.00
  
  
  ***************************
  Flow Classification Summary
  ***************************
  
  -------------------------------------------------------------------------------------
                      Adjusted    ---------- Fraction of Time in Flow Class ---------- 
                       /Actual         Up    Down  Sub   Sup   Up    Down  Norm  Inlet 
  Conduit               Length    Dry  Dry   Dry   Crit  Crit  Crit  Crit  Ltd   Ctrl  
  -------------------------------------------------------------------------------------
  C1                      1.00   0.00  0.00  0.00  0.06  0.94  0.00  0.00  0.92  0.00
  C6                      1.00   0.00  0.00  0.00  0.01  0.99  0.00  0.00  0.00  0.00
  C2                      1.00   0.00  0.00  0.00  0.23  0.77  0.00  0.00  0.96  0.00
  C9                      1.00   0.00  0.00  0.00  1.00  0.00  0.00  0.00  1.00  0.00
  C16                     1.00   0.00  0.00  0.00  0.61  0.39  0.00  0.00  0.51  0.00
  C3                      1.00   0.00  0.00  0.00  0.46  0.53  0.00  0.00  0.77  0.00
  C19                     1.00   0.00  0.00  0.00  0.91  0.09  0.00  0.00  1.00  0.00
  C11                     1.00   0.00  0.00  0.00  0.45  0.55  0.00  0.00  1.00  0.00
  C20                     1.00   0.00  0.00  0.00  0.48  0.52  0.00  0.00  0.98  0.00
  C22                     1.00   0.00  0.00  0.00  0.84  0.16  0.00  0.00  1.00  0.00
  C12                     1.00   0.00  0.00  0.00  0.89  0.11  0.00  0.00  0.98  0.00
  C17                     1.00   0.00  0.00  0.00  0.02  0.98  0.00  0.00  0.97  0.00
  C10                     1.00   0.00  0.00  0.00  0.96  0.04  0.00  0.00  0.98  0.00
  C13                     1.00   0.00  0.00  0.00  0.88  0.12  0.00  0.00  0.91  0.00
  C18                     1.00   0.00  0.00  0.00  0.93  0.07  0.00  0.00  0.97  0.00
  C23                     1.00   0.00  0.00  0.00  0.87  0.13  0.00  0.00  0.94  0.00
  C4                      1.00   0.00  0.00  0.00  0.96  0.04  0.00  0.00  0.98  0.00
  C7                      1.00   0.00  0.00  0.00  0.94  0.06  0.00  0.00  0.97  0.00
  C14                     1.00   0.00  0.00  0.00  0.00  0.99  0.00  0.00  0.52  0.00
  C5                      1.00   0.00  0.00  0.00  0.88  0.12  0.00  0.00  0.98  0.00
  C8                      1.00   0.00  0.00  0.00  0.00  1.00  0.00  0.00  0.00  0.00
  C15                     1.00   0.00  0.00  0.00  0.00  1.00  0.00  0.00  0.00  0.00
  C21                     1.00   0.00  0.00  0.00  0.00  1.00  0.00  0.00  0.00  0.00
  
  
  *************************
  Conduit Surcharge Summary
  *************************
  
  ----------------------------------------------------------------------------
                                                           Hours        Hours 
                         --------- Hours Full --------   Above Full   Capacity
  Conduit                Both Ends  Upstream  Dnstream   Normal Flow   Limited
  ----------------------------------------------------------------------------
  C10                         0.01      0.01      5.46      0.01         0.01
  C13                         0.01      0.01      4.41      0.01         0.01
  C23                         0.01      0.01      5.27      0.01         0.01
  C4                          0.01      0.01      5.57      0.01         0.01
  C7                          0.01      0.01      5.27      0.01         0.01
  

  Analysis begun on:  Tue Aug 31 11:08:56 2021
  Analysis ended on:  Tue Aug 31 11:08:56 2021
  Total elapsed time: < 1 sec