
  EPA STORM WATER MANAGEMENT MODEL - VERSION 5.1 (Build 5.3.0.dev0)
  --------------------------------------------------------------

  WARNING 04: minimum elevation drop used for Conduit WS02004404WS02004405
  WARNING 03: negative offset ignored for Link YS02001904YS02001907
  
  *********************************************************
  NOTE: The summary statistics displayed in this report are
  based on results found at every computational time step,  
  not just on results from each reporting time step.
  *********************************************************
  
  ****************
  Analysis Options
  ****************
  Flow Units ............... LPS
  Process Models:
    Rainfall/Runoff ........ YES
    RDII ................... NO
    Snowmelt ............... NO
    Groundwater ............ NO
    Flow Routing ........... YES
    Ponding Allowed ........ NO
    Water Quality .......... YES
  Infiltration Method ...... HORTON
  Flow Routing Method ...... DYNWAVE
  Surcharge Method ......... EXTRAN
  Starting Date ............ 08/28/2015 08:00:00
  Ending Date .............. 08/28/2015 14:20:00
  Antecedent Dry Days ...... 8.0
  Report Time Step ......... 00:01:00
  Wet Time Step ............ 00:01:00
  Dry Time Step ............ 00:01:00
  Routing Time Step ........ 5.00 sec
  Variable Time Step ....... YES
  Maximum Trials ........... 8
  Number of Threads ........ 4
  Head Tolerance ........... 0.001500 m
  
  
  **************************        Volume         Depth
  Runoff Quantity Continuity     hectare-m            mm
  **************************     ---------       -------
  Total Precipitation ......         2.525         5.528
  Evaporation Loss .........         0.000         0.000
  Infiltration Loss ........         0.318         0.697
  Surface Runoff ...........         0.209         0.458
  Final Storage ............         2.004         4.387
  Continuity Error (%) .....        -0.253
  
  
  **************************           COD            SS            TN            TP         NH4-N
  Runoff Quality Continuity             kg            kg            kg            kg            kg
  **************************    ----------    ----------    ----------    ----------    ----------
  Initial Buildup ..........     41378.656     70582.865      1804.177       168.684      1032.807
  Surface Buildup ..........         6.109         4.280         1.879         0.173         1.119
  Wet Deposition ...........         0.000         0.000         0.000         0.000         0.000
  Sweeping Removal .........         0.000         0.000         0.000         0.000         0.000
  Infiltration Loss ........         1.300         2.239         0.025         0.002         0.012
  BMP Removal ..............         0.000         0.000         0.000         0.000         0.000
  Surface Runoff ...........       175.515       323.805         3.359         0.227         1.587
  Remaining Buildup ........     41205.705     70256.896      1802.629       168.625      1032.308
  Continuity Error (%) .....         0.005         0.006         0.002         0.002         0.002
  
  
  **************************        Volume        Volume
  Flow Routing Continuity        hectare-m      10^6 ltr
  **************************     ---------     ---------
  Dry Weather Inflow .......         0.124         1.237
  Wet Weather Inflow .......         0.191         1.913
  Groundwater Inflow .......         0.000         0.000
  RDII Inflow ..............         0.000         0.000
  External Inflow ..........         0.021         0.205
  External Outflow .........         0.163         1.631
  Flooding Loss ............         0.001         0.009
  Evaporation Loss .........         0.000         0.000
  Exfiltration Loss ........         0.000         0.000
  Initial Stored Volume ....         0.076         0.761
  Final Stored Volume ......         0.247         2.469
  Continuity Error (%) .....         0.170
  
  
  **************************           COD            SS            TN            TP         NH4-N
  Quality Routing Continuity            kg            kg            kg            kg            kg
  **************************    ----------    ----------    ----------    ----------    ----------
  Dry Weather Inflow .......       309.222       494.754        29.685         3.711        18.553
  Wet Weather Inflow .......       158.057       290.897         3.031         0.205         1.431
  Groundwater Inflow .......         0.000         0.000         0.000         0.000         0.000
  RDII Inflow ..............         0.000         0.000         0.000         0.000         0.000
  External Inflow ..........        36.800        58.881         3.533         0.442         2.208
  External Outflow .........       244.951       391.918        23.506         2.938        14.690
  Flooding Loss ............         0.370         0.625         0.016         0.002         0.009
  Exfiltration Loss ........         0.000         0.000         0.000         0.000         0.000
  Mass Reacted .............         0.000         0.000         0.000         0.000         0.000
  Initial Stored Mass ......         0.000         0.000         0.000         0.000         0.000
  Final Stored Mass ........       247.398       434.212        11.670         1.287         6.836
  Continuity Error (%) .....         2.254         2.105         2.916         2.991         2.961
  
  
  *************************
  Highest Continuity Errors
  *************************
  Node WS02003067 (100.00%)
  Node WS02004413 (87.63%)
  Node YS02001884 (69.25%)
  Node HS02004842 (67.51%)
  Node YS02163301 (67.50%)
  
  
  ***************************
  Time-Step Critical Elements
  ***************************
  Link WS02006280WS02006229 (40.92%)
  
  
  ********************************
  Highest Flow Instability Indexes
  ********************************
  Link WS02006113WS02006111 (19)
  Link YS02006558YS02006561 (11)
  Link WS02004404WS02004405 (6)
  Link HS02004479HS02004480 (4)
  Link YS02001759YS02001757 (4)
  
  
  *************************
  Routing Time Step Summary
  *************************
  Minimum Time Step           :     0.50 sec
  Average Time Step           :     3.70 sec
  Maximum Time Step           :     5.00 sec
  Percent in Steady State     :    -0.00
  Average Iterations per Step :     2.26
  Percent Not Converging      :     0.98
  
  
  ***************************
  Subcatchment Runoff Summary
  ***************************
  
  ------------------------------------------------------------------------------------------------------------------------------
                            Total      Total      Total      Total     Imperv       Perv      Total       Total     Peak  Runoff
                           Precip      Runon       Evap      Infil     Runoff     Runoff     Runoff      Runoff   Runoff   Coeff
  Subcatchment                 mm         mm         mm         mm         mm         mm         mm    10^6 ltr      LPS
  ------------------------------------------------------------------------------------------------------------------------------
  sub0                       5.53       0.00       0.00       0.30       3.82       0.03       3.85        0.00     2.33   0.697
  sub1                       5.53       0.00       0.00       0.47       2.49       0.02       2.50        0.02    15.71   0.453
  sub2                       5.53       0.00       0.00       1.59       1.54       0.01       1.55        0.01    14.41   0.280
  sub3                       5.53       0.00       0.00       1.59       1.26       0.01       1.26        0.03    30.31   0.228
  sub4                       5.53       0.00       0.00       0.47       1.44       0.01       1.45        0.03    33.93   0.262
  sub5                       5.53       0.00       0.00       0.30       2.60       0.01       2.61        0.03    27.89   0.472
  sub7                       5.53       0.00       0.00       0.39       3.11       0.02       3.14        0.01     8.96   0.568
  sub8                       5.53       0.00       0.00       0.39       2.90       0.02       2.92        0.02    16.46   0.528
  sub9                       5.53       0.00       0.00       0.39       2.85       0.02       2.87        0.01    12.30   0.519
  sub10                      5.53       0.00       0.00       0.34       2.67       0.02       2.69        0.03    27.46   0.487
  sub11                      5.53       0.00       0.00       0.34       3.00       0.02       3.02        0.04    30.56   0.546
  sub12                      5.53       0.00       0.00       0.56       3.33       0.03       3.37        0.03    23.23   0.609
  sub14                      5.53       0.00       0.00       0.39       2.81       0.02       2.83        0.03    24.19   0.512
  sub15                      5.53       0.00       0.00       1.29       2.11       0.02       2.12        0.04    33.35   0.384
  sub16                      5.53       0.00       0.00       1.42       2.46       0.03       2.49        0.03    21.28   0.450
  sub17                      5.53       0.00       0.00       1.37       2.43       0.02       2.46        0.02    17.51   0.445
  sub22                      5.53       0.00       0.00       1.85       1.89       0.02       1.90        0.12   104.55   0.344
  sub23                      5.53       0.00       0.00       1.59       2.13       0.02       2.15        0.10    88.01   0.388
  sub60                      5.53       0.00       0.00       0.51       0.34       0.00       0.34        0.10   133.10   0.061
  sub61                      5.53       0.00       0.00       0.73       0.46       0.00       0.46        0.14   181.60   0.083
  sub62                      5.53       0.00       0.00       0.34       0.46       0.00       0.46        0.14   181.11   0.083
  sub63                      5.53       0.00       0.00       1.24       0.46       0.00       0.46        0.14   175.07   0.083
  sub64                      5.53       0.00       0.00       0.64       0.32       0.00       0.32        0.10   125.66   0.057
  sub65                      5.53       0.00       0.00       0.56       0.31       0.00       0.32        0.10   126.73   0.057
  sub66                      5.53       0.00       0.00       1.24       0.30       0.00       0.30        0.09   118.24   0.054
  sub67                      5.53       0.00       0.00       0.34       0.64       0.00       0.65        0.20   250.62   0.117
  sub68                      5.53       0.00       0.00       0.60       0.52       0.00       0.52        0.16   204.99   0.095
  sub69                      5.53       0.00       0.00       0.64       0.77       0.00       0.77        0.18   220.57   0.139
  sub70                      5.53       0.73       0.00       1.47       0.39       0.00       0.39        0.09   124.30   0.063
  sub71                      5.53       0.00       0.00       0.34       0.40       0.00       0.40        0.09   122.66   0.073
  sub72                      5.53       0.00       0.00       0.30       0.18       0.00       0.19        0.04    50.22   0.034
  1                          5.53       0.35       0.00       0.29       0.35       0.03       0.37        0.09   117.39   0.063
  2                          5.53       0.00       0.00       0.63       0.26       0.02       0.28        0.11   137.94   0.051
  
  
  ****************************
  Subcatchment Washoff Summary
  ****************************
  
  ------------------------------------------------------------------------------------------
                                 COD            SS            TN            TP         NH4-N
  Subcatchment                    kg            kg            kg            kg            kg
  ------------------------------------------------------------------------------------------
  sub0                         0.942         1.877         0.015         0.001         0.007
  sub1                         2.506         5.042         0.045         0.003         0.022
  sub2                         1.219         2.352         0.025         0.002         0.012
  sub3                         2.396         4.544         0.049         0.003         0.022
  sub4                         3.064         6.069         0.059         0.004         0.028
  sub5                         5.869        11.667         0.100         0.008         0.048
  sub7                         1.623         3.338         0.029         0.002         0.014
  sub8                         2.220         4.656         0.042         0.003         0.020
  sub9                         1.875         3.877         0.035         0.002         0.017
  sub10                        5.019        10.114         0.088         0.006         0.042
  sub11                        5.557        11.369         0.099         0.007         0.048
  sub12                        5.571        11.222         0.097         0.007         0.046
  sub14                        3.962         8.113         0.072         0.005         0.034
  sub15                        4.568         8.902         0.085         0.006         0.040
  sub16                        3.581         7.000         0.066         0.005         0.031
  sub17                        3.223         6.246         0.058         0.004         0.027
  sub22                       14.906        28.454         0.275         0.021         0.128
  sub23                        9.059        17.944         0.186         0.012         0.085
  sub60                        5.961        10.305         0.124         0.007         0.059
  sub61                       10.526        18.360         0.198         0.013         0.095
  sub62                       10.007        17.717         0.200         0.012         0.096
  sub63                        9.010        15.565         0.186         0.013         0.085
  sub64                        7.009        11.653         0.132         0.009         0.062
  sub65                        7.022        11.715         0.133         0.009         0.063
  sub66                        4.607         7.766         0.100         0.006         0.046
  sub67                       21.015        37.359         0.372         0.027         0.179
  sub68                       12.896        22.834         0.250         0.016         0.119
  sub69                       17.742        32.284         0.330         0.023         0.157
  sub70                        5.825        10.090         0.126         0.008         0.057
  sub71                        5.859        10.412         0.125         0.007         0.060
  sub72                        2.161         3.455         0.042         0.003         0.020
  1                            0.245         0.411         0.009         0.001         0.003
  2                            2.037         3.465         0.061         0.004         0.026
  ------------------------------------------------------------------------------------------
  System                     199.082       366.179         3.815         0.258         1.801
  
  
  ******************
  Node Depth Summary
  ******************
  
  ---------------------------------------------------------------------------------
                                 Average  Maximum  Maximum  Time of Max    Reported
                                   Depth    Depth      HGL   Occurrence   Max Depth
  Node                 Type       Meters   Meters   Meters  days hr:min      Meters
  ---------------------------------------------------------------------------------
  WS02001211           JUNCTION     0.67     0.76     5.60     0  00:37        0.76
  WS02001212           JUNCTION     0.38     0.45     5.52     0  00:40        0.45
  WS02001213           JUNCTION     0.57     0.67     5.43     0  00:22        0.67
  WS02003069           JUNCTION     0.30     0.36     4.94     0  00:21        0.36
  WS02003072           JUNCTION     0.37     0.43     4.80     0  00:24        0.43
  WS02003073           JUNCTION     0.21     0.25     4.32     0  00:29        0.25
  WS02003060           JUNCTION     0.27     0.32     5.26     0  00:21        0.32
  WS02003066           JUNCTION     0.00     0.00     5.55     0  01:34        0.00
  WS02003059           JUNCTION     0.62     0.71     5.40     0  00:23        0.71
  WS02003067           JUNCTION     0.00     0.24     5.56     0  01:34        0.16
  WS02004401           JUNCTION     0.16     0.70     6.70     0  01:34        0.69
  WS02004402           JUNCTION     0.16     0.72     6.68     0  01:34        0.72
  WS02004403           JUNCTION     0.16     0.75     6.68     0  01:34        0.73
  WS02004404           JUNCTION     0.21     0.83     6.68     0  01:34        0.81
  WS02004406           JUNCTION     0.22     0.82     6.65     0  01:34        0.81
  WS02004409           JUNCTION     0.04     0.40     6.17     0  01:34        0.39
  WS02004410           JUNCTION     0.04     0.38     6.10     0  01:34        0.37
  WS02004411           JUNCTION     0.03     0.35     6.03     0  01:34        0.33
  WS02004412           JUNCTION     0.02     0.35     5.99     0  01:34        0.30
  WS02004413           JUNCTION     0.03     0.50     5.97     0  01:34        0.49
  WS02004405           JUNCTION     0.20     0.81     6.66     0  01:34        0.80
  WS02006109           JUNCTION     0.43     0.95     7.57     0  01:34        0.94
  WS02006110           JUNCTION     0.44     0.90     7.49     0  01:34        0.89
  WS02006111           JUNCTION     0.09     0.27     6.98     0  01:34        0.27
  WS02006112           JUNCTION     0.34     0.92     6.80     0  01:34        0.90
  WS02006113           JUNCTION     0.13     0.43     7.33     0  01:34        0.42
  WS02006115           JUNCTION     0.15     0.61     6.75     0  01:34        0.60
  WS02006116           JUNCTION     0.16     0.68     6.72     0  01:34        0.67
  WS02006230           JUNCTION     0.34     0.94     7.68     0  01:34        0.92
  WS02006231           JUNCTION     0.08     0.57     7.70     0  01:34        0.56
  WS02006232           JUNCTION     0.09     0.67     7.70     0  01:34        0.65
  WS02006234           JUNCTION     0.06     0.55     7.70     0  01:34        0.54
  WS02006235           JUNCTION     0.07     0.55     7.71     0  01:34        0.53
  WS02006238           JUNCTION     0.08     0.57     7.71     0  01:34        0.55
  WS02006240           JUNCTION     0.06     0.42     7.71     0  01:34        0.41
  WS02006242           JUNCTION     0.09     0.44     7.71     0  01:34        0.43
  WS02006243           JUNCTION     0.06     0.29     7.71     0  01:34        0.25
  WS02006245           JUNCTION     0.07     0.23     7.71     0  01:34        0.22
  WS02006247           JUNCTION     0.09     0.25     7.75     0  01:34        0.25
  WS02006248           JUNCTION     0.07     0.20     7.79     0  01:34        0.20
  WS02006249           JUNCTION     0.10     0.25     7.85     0  01:34        0.25
  WS02006239           JUNCTION     0.07     0.51     7.72     0  01:34        0.48
  WS02006251           JUNCTION     0.09     0.24     7.91     0  01:34        0.24
  WS02006252           JUNCTION     0.00     0.00     8.24     0  00:00        0.00
  WS02006253           JUNCTION     0.12     0.30     7.95     0  01:34        0.30
  WS02006256           JUNCTION     0.23     2.35     9.28     0  01:32        2.35
  WS02004138           JUNCTION     0.16     0.20     7.45     0  00:00        0.19
  WS02004139           JUNCTION     0.62     0.71     5.62     0  00:38        0.71
  WS02004407           JUNCTION     0.03     0.22     6.53     0  01:34        0.21
  WS02006228           JUNCTION     0.41     0.99     7.64     0  01:34        0.97
  WS02006229           JUNCTION     0.37     0.98     7.67     0  01:34        0.97
  WS02006280           JUNCTION     0.07     0.20     8.47     0  01:34        0.20
  WS02006284           JUNCTION     0.31     0.56     8.95     0  01:34        0.55
  WS02006287           JUNCTION     0.10     0.29     9.25     0  01:34        0.29
  WSF200               JUNCTION     0.01     0.02     5.26     0  00:17        0.02
  HS02004901           JUNCTION     0.11     0.30    10.12     0  01:34        0.30
  HS02004881           JUNCTION     0.01     0.04     9.07     0  01:34        0.04
  HS02004876           JUNCTION     0.05     0.12     9.15     0  01:34        0.12
  HS02004870           JUNCTION     0.02     0.06     9.35     0  01:34        0.06
  HS02004862           JUNCTION     0.03     0.07     9.46     0  01:34        0.07
  HS02004856           JUNCTION     0.05     0.13     9.55     0  01:34        0.12
  HS02004852           JUNCTION     0.01     0.05     9.56     0  01:34        0.05
  HS02004848           JUNCTION     0.02     0.05     9.65     0  01:34        0.05
  HS02004842           JUNCTION     0.27     0.38     9.65     0  01:34        0.38
  HS02004837           JUNCTION     0.03     0.07     9.65     0  01:34        0.07
  HS02004830           JUNCTION     0.04     0.08     9.55     0  01:34        0.08
  HS02004824           JUNCTION     0.02     0.06     9.46     0  01:34        0.06
  HS02004817           JUNCTION     0.32     0.60     9.45     0  01:34        0.60
  HS02004807           JUNCTION     0.10     0.27     9.44     0  01:34        0.27
  HS02004802           JUNCTION     0.11     0.31     9.43     0  01:34        0.30
  HS02004799           JUNCTION     0.15     0.35     9.56     0  01:34        0.35
  HS02004792           JUNCTION     0.06     0.15     9.67     0  01:34        0.15
  HS02004788           JUNCTION     0.04     0.11    10.01     0  01:34        0.11
  HS02004785           JUNCTION     0.07     0.18    10.08     0  01:34        0.18
  HS02004777           JUNCTION     0.13     0.31    10.11     0  01:34        0.31
  HS02004770           JUNCTION     0.11     0.29    10.12     0  01:34        0.29
  HS02004480           JUNCTION     0.10     0.28     9.52     0  01:34        0.28
  HS02004479           JUNCTION     0.13     0.32     9.52     0  01:34        0.32
  HS02004478           JUNCTION     0.06     0.19     9.42     0  01:34        0.19
  YS02001745           JUNCTION     0.05     0.15     7.67     0  01:34        0.15
  YS02001748           JUNCTION     0.06     0.32     7.40     0  01:34        0.30
  YS02001751           JUNCTION     0.09     0.51     7.39     0  01:34        0.49
  YS02001754           JUNCTION     0.17     0.78     7.39     0  01:34        0.76
  YS02001762           JUNCTION     0.26     1.04     7.44     0  01:34        1.00
  YS02001765           JUNCTION     0.23     0.96     7.41     0  01:34        0.94
  YS02001767           JUNCTION     0.22     0.93     7.42     0  01:34        0.89
  YS02001770           JUNCTION     0.22     0.90     7.39     0  01:34        0.89
  YS02001774           JUNCTION     0.25     0.98     7.40     0  01:34        0.96
  YS02001779           JUNCTION     0.13     0.71     7.40     0  01:34        0.69
  YS02001882           JUNCTION     0.15     0.56     7.28     0  01:34        0.56
  YS02001884           JUNCTION     0.20     0.66     7.28     0  01:34        0.65
  YS02001759           JUNCTION     0.27     1.05     7.41     0  01:34        1.02
  YS02001887           JUNCTION     0.27     0.74     7.28     0  01:34        0.73
  YS02001890           JUNCTION     0.29     0.77     7.27     0  01:34        0.76
  YS02001898           JUNCTION     0.13     0.52     7.25     0  01:34        0.51
  YS02001901           JUNCTION     0.18     0.64     7.25     0  01:34        0.64
  YS02001904           JUNCTION     0.17     0.61     7.24     0  01:34        0.61
  YS02001907           JUNCTION     0.38     0.96     7.25     0  01:34        0.95
  YS02001910           JUNCTION     0.24     0.74     7.25     0  01:34        0.73
  YS02001915           JUNCTION     0.15     0.53     7.25     0  01:34        0.52
  YS02001918           JUNCTION     0.05     0.18     7.25     0  01:34        0.17
  YS02001619           JUNCTION     0.10     0.47     7.40     0  01:34        0.47
  YS02001629           JUNCTION     0.18     0.88     7.43     0  01:34        0.85
  YS02001641           JUNCTION     0.24     0.98     7.41     0  01:34        0.96
  YS02001644           JUNCTION     0.25     0.99     7.43     0  01:34        0.95
  YS02001652           JUNCTION     0.17     0.81     7.40     0  01:34        0.78
  YS02001655           JUNCTION     0.10     0.54     7.39     0  01:34        0.52
  YS02001920           JUNCTION     0.13     0.25     7.26     0  01:34        0.25
  YS02001923           JUNCTION     0.03     0.10     7.36     0  01:34        0.10
  YS02001926           JUNCTION     0.08     0.20     7.64     0  01:34        0.20
  YS02001929           JUNCTION     0.04     0.10     7.80     0  01:34        0.10
  YS02001658           JUNCTION     0.06     0.19     7.33     0  01:34        0.18
  YS02001661           JUNCTION     0.09     0.24     7.65     0  01:34        0.24
  YS02001664           JUNCTION     0.05     0.16     8.08     0  01:34        0.15
  YS02001622           JUNCTION     0.09     0.50     7.40     0  01:34        0.49
  YS02001633           JUNCTION     0.24     0.98     7.43     0  01:34        0.95
  YS02001649           JUNCTION     0.25     1.05     7.44     0  01:34        0.99
  YS02001757           JUNCTION     0.34     1.15     7.41     0  01:34        1.12
  YS02001895           JUNCTION     0.14     0.51     7.26     0  01:34        0.51
  YS02001625           JUNCTION     0.21     0.80     7.41     0  01:34        0.79
  YS02163301           JUNCTION     0.20     0.91     7.43     0  01:34        0.89
  YS02163601           JUNCTION     0.28     1.04     7.43     0  01:34        1.00
  YS02164001           JUNCTION     0.23     0.96     7.42     0  01:34        0.95
  YS02001647           JUNCTION     0.16     0.80     7.41     0  01:34        0.78
  YSB1154              JUNCTION     0.19     0.47     9.53     0  01:34        0.47
  YSB6556              JUNCTION     0.14     0.36     9.53     0  01:34        0.36
  YSB1174              JUNCTION     0.17     0.42     9.53     0  01:34        0.42
  YSB1171              JUNCTION     0.33     0.62     9.53     0  01:34        0.62
  YS02006553           JUNCTION     0.39     0.96     7.24     0  01:34        0.95
  YS02006561           JUNCTION     0.06     0.28     6.94     0  01:34        0.27
  YS02006556           JUNCTION     0.37     0.93     7.24     0  01:34        0.92
  YS02006558           JUNCTION     0.41     0.97     7.24     0  01:34        0.96
  YS02001783           JUNCTION     0.11     0.49     6.63     0  01:34        0.48
  YS02001784           JUNCTION     0.14     0.51     6.58     0  01:34        0.50
  YS02001786           JUNCTION     0.12     0.42     6.45     0  01:34        0.42
  YS02001788           JUNCTION     0.08     0.32     6.30     0  01:34        0.32
  YS02001790           JUNCTION     0.10     0.38     6.03     0  01:34        0.38
  YS02001791           JUNCTION     0.06     0.23     5.70     0  01:34        0.23
  YS02001793           JUNCTION     0.09     0.96     5.79     0  01:33        0.87
  WSC                  OUTFALL      0.21     0.25     0.92     0  00:29        0.25
  JK-storage           STORAGE      3.32     4.91     5.71     0  01:33        4.90
  CC-storage           STORAGE      0.00     0.04     7.04     0  01:34        0.04
  XR-storage           STORAGE      1.93     5.00     3.00     0  00:00        4.91
  
  
  *******************
  Node Inflow Summary
  *******************
  
  -------------------------------------------------------------------------------------------------
                                  Maximum  Maximum                  Lateral       Total        Flow
                                  Lateral    Total  Time of Max      Inflow      Inflow     Balance
                                   Inflow   Inflow   Occurrence      Volume      Volume       Error
  Node                 Type           LPS      LPS  days hr:min    10^6 ltr    10^6 ltr     Percent
  -------------------------------------------------------------------------------------------------
  WS02001211           JUNCTION      7.35   387.67     0  00:22      0.0416        1.67       1.565
  WS02001212           JUNCTION      0.00   387.67     0  00:35           0        1.64       0.894
  WS02001213           JUNCTION      0.00   387.67     0  00:40           0        1.63       1.092
  WS02003069           JUNCTION      0.32   404.75     0  00:21     0.00181        1.67       0.754
  WS02003072           JUNCTION      0.00   404.59     0  00:24           0        1.66       1.150
  WS02003073           JUNCTION      1.82   406.36     0  00:27      0.0103        1.65       1.249
  WS02003060           JUNCTION     16.53   404.76     0  00:18      0.0935        1.68       0.715
  WS02003066           JUNCTION      0.00     0.04     0  01:34           0    2.29e-08       0.023 ltr
  WS02003059           JUNCTION      0.00   387.73     0  00:20           0        1.61       1.505
  WS02003067           JUNCTION      0.00    62.95     0  01:34           0     0.00251    2511.379 ltr
  WS02004401           JUNCTION      0.00   410.66     0  01:34           0       0.204      12.497
  WS02004402           JUNCTION      0.00   388.23     0  01:34           0       0.181      13.014
  WS02004403           JUNCTION      0.00   371.46     0  01:34           0        0.16      13.376
  WS02004404           JUNCTION      0.16   349.81     0  01:33    0.000917       0.142      11.109
  WS02004406           JUNCTION      0.00   328.47     0  01:34           0       0.108      45.004
  WS02004409           JUNCTION      0.00   298.03     0  01:34           0      0.0671      22.552
  WS02004410           JUNCTION      0.00   274.03     0  01:34           0      0.0547      28.940
  WS02004411           JUNCTION      0.00   251.99     0  01:34           0      0.0424      33.887
  WS02004412           JUNCTION      0.00   216.64     0  01:34           0      0.0317      56.095
  WS02004413           JUNCTION      0.00   149.20     0  01:33           0      0.0203     708.637
  WS02004405           JUNCTION      0.04   353.23     0  01:34    0.000216       0.128      19.139
  WS02006109           JUNCTION      1.23   514.36     0  01:34     0.00696       0.324       7.482
  WS02006110           JUNCTION      0.00   514.10     0  01:34           0       0.301       8.871
  WS02006111           JUNCTION      0.00   502.59     0  01:34           0       0.264       2.431
  WS02006112           JUNCTION     17.29   500.22     0  01:34      0.0198       0.277      11.865
  WS02006113           JUNCTION      0.00   507.83     0  01:34           0       0.277       4.919
  WS02006115           JUNCTION      0.00   476.82     0  01:34           0       0.248      11.393
  WS02006116           JUNCTION      0.00   443.14     0  01:34           0       0.223       9.187
  WS02006230           JUNCTION     10.28   140.64     0  01:34      0.0582      0.0866      23.922
  WS02006231           JUNCTION      0.00   147.74     0  01:33           0      0.0357      54.393
  WS02006232           JUNCTION      0.00   163.84     0  01:33           0      0.0388      59.829
  WS02006234           JUNCTION      0.00   187.04     0  01:33           0      0.0426      35.935
  WS02006235           JUNCTION      0.00   253.30     0  01:32           0       0.058      14.382
  WS02006238           JUNCTION      0.00    71.55     0  01:34           0      0.0257      38.268
  WS02006240           JUNCTION      0.00    67.22     0  01:31           0      0.0342      44.345
  WS02006242           JUNCTION      0.00    72.66     0  01:32           0      0.0436      36.275
  WS02006243           JUNCTION      0.00    78.37     0  01:33           0      0.0498      14.241
  WS02006245           JUNCTION      0.00    78.65     0  01:34           0      0.0539       8.234
  WS02006247           JUNCTION      0.00    80.18     0  01:34           0      0.0575       6.656
  WS02006248           JUNCTION      0.00    81.13     0  01:34           0      0.0593       3.191
  WS02006249           JUNCTION      0.00    82.50     0  01:34           0      0.0649       9.441
  WS02006239           JUNCTION      0.00    61.95     0  01:30           0      0.0295      51.991
  WS02006251           JUNCTION      0.08    84.02     0  01:34    0.000436      0.0693       6.714
  WS02006252           JUNCTION      0.00     0.00     0  00:00           0           0       0.000 ltr
  WS02006253           JUNCTION      2.30    84.52     0  01:34     0.00295      0.0713       3.520
  WS02006256           JUNCTION      0.00   421.09     0  01:34           0      0.0549       1.963
  WS02004138           JUNCTION      0.00   380.00     0  00:00           0        1.67       0.338
  WS02004139           JUNCTION      0.32   394.45     0  00:00     0.00182        1.66       1.981
  WS02004407           JUNCTION      0.00   309.81     0  01:34           0      0.0743      10.732
  WS02006228           JUNCTION      0.00   513.46     0  01:34           0       0.334       5.286
  WS02006229           JUNCTION      0.00   518.34     0  01:34           0       0.362       4.455
  WS02006280           JUNCTION      0.00   395.71     0  01:34           0       0.306       0.363
  WS02006284           JUNCTION      0.10   398.16     0  01:34    0.000541       0.315       2.852
  WS02006287           JUNCTION      0.00   399.80     0  01:34           0        0.32       1.932
  WSF200               JUNCTION      0.00     3.21     0  00:10           0    0.000822       1.994
  HS02004901           JUNCTION     21.01    21.01     0  01:34      0.0245      0.0248      31.260
  HS02004881           JUNCTION      8.85    82.66     0  01:34      0.0099      0.0699       2.370
  HS02004876           JUNCTION     15.46    74.92     0  01:34      0.0155      0.0649       8.083
  HS02004870           JUNCTION     16.24    60.22     0  01:34      0.0174       0.052       5.211
  HS02004862           JUNCTION     14.34    44.92     0  01:34      0.0145      0.0375       8.518
  HS02004856           JUNCTION     12.13    31.31     0  01:34      0.0129      0.0266      15.417
  HS02004852           JUNCTION      0.00    20.02     0  01:34           0      0.0156      13.271
  HS02004848           JUNCTION     29.63    29.63     0  01:34      0.0262      0.0262       7.434
  HS02004842           JUNCTION      0.00     9.01     0  01:34           0      0.0219     207.821
  HS02004837           JUNCTION     33.40    41.82     0  01:34      0.0636      0.0707       3.764
  HS02004830           JUNCTION      0.15    41.40     0  01:34    0.000849      0.0558       6.091
  HS02004824           JUNCTION     33.12    73.86     0  01:34       0.028      0.0806       2.925
  HS02004817           JUNCTION      0.60    73.77     0  01:34     0.00339      0.0822      40.752
  HS02004807           JUNCTION     30.17   101.53     0  01:34      0.0328      0.0923      14.019
  HS02004802           JUNCTION      0.00    99.19     0  01:34           0      0.0844      12.701
  HS02004799           JUNCTION     23.86   261.28     0  01:34      0.0252       0.251       5.156
  HS02004792           JUNCTION    103.40   239.09     0  01:34       0.114       0.233       3.270
  HS02004788           JUNCTION     34.52   136.89     0  01:34      0.0435       0.125       4.449
  HS02004785           JUNCTION      0.15   103.86     0  01:34    0.000849      0.0913      10.513
  HS02004777           JUNCTION      0.03   105.47     0  01:34     0.00017       0.104      16.082
  HS02004770           JUNCTION     86.84   107.06     0  01:34      0.0959       0.115      10.716
  HS02004480           JUNCTION      0.00   305.02     0  01:34           0       0.274       3.496
  HS02004479           JUNCTION      0.00    46.77     0  01:34           0      0.0477       9.090
  HS02004478           JUNCTION      0.00   400.84     0  01:34           0       0.328       1.225
  YS02001745           JUNCTION    128.14   128.14     0  01:34      0.0924      0.0924       2.398
  YS02001748           JUNCTION      0.04   127.42     0  01:34    0.000255      0.0905       4.775
  YS02001751           JUNCTION      0.01   126.40     0  01:33    6.22e-05      0.0864      16.850
  YS02001754           JUNCTION      0.26   117.35     0  01:30     0.00147      0.0755      33.380
  YS02001762           JUNCTION      0.00   100.41     0  01:27           0      0.0543      62.253
  YS02001765           JUNCTION      0.00   103.60     0  01:33           0      0.0547      75.688
  YS02001767           JUNCTION      0.54   128.64     0  01:34     0.00303      0.0725      88.914
  YS02001770           JUNCTION    174.71   174.71     0  01:34       0.128       0.128      28.809
  YS02001774           JUNCTION      0.00    74.23     0  01:26           0      0.0368     198.012
  YS02001779           JUNCTION      0.01    33.34     0  01:27    2.83e-05      0.0124    3356.300
  YS02001882           JUNCTION      0.00     9.30     0  01:31           0     0.00679    6792.057 ltr
  YS02001884           JUNCTION      0.00    19.69     0  01:26           0      0.0221     225.199
  YS02001759           JUNCTION    175.17   246.47     0  01:33       0.129       0.146      18.278
  YS02001887           JUNCTION    242.49   242.49     0  01:34       0.183       0.183      10.715
  YS02001890           JUNCTION      0.00   218.87     0  01:33           0       0.144      14.734
  YS02001898           JUNCTION      0.00   205.78     0  01:34           0       0.111      11.594
  YS02001901           JUNCTION      0.00   193.47     0  01:33           0         0.1      18.327
  YS02001904           JUNCTION      0.00   183.58     0  01:34           0      0.0887      18.470
  YS02001907           JUNCTION      0.00   292.89     0  01:34           0       0.164      27.377
  YS02001910           JUNCTION      0.00   133.89     0  01:34           0       0.103      26.175
  YS02001915           JUNCTION    118.18   147.03     0  01:34      0.0858       0.121      17.961
  YS02001918           JUNCTION      0.00    41.12     0  01:34           0      0.0405      14.178
  YS02001619           JUNCTION    113.87   113.87     0  01:34      0.0824      0.0824       7.245
  YS02001629           JUNCTION      0.00    70.16     0  01:33           0      0.0353     101.721
  YS02001641           JUNCTION      0.00    85.72     0  01:34           0      0.0365     128.980
  YS02001644           JUNCTION    121.00   190.46     0  01:34      0.0873      0.0931      37.831
  YS02001652           JUNCTION      0.00   142.34     0  01:33           0       0.105      21.879
  YS02001655           JUNCTION      0.15   160.88     0  01:33    0.000871       0.118      13.156
  YS02001920           JUNCTION      2.87    47.63     0  01:34      0.0162      0.0448      10.476
  YS02001923           JUNCTION      0.04    45.22     0  01:34    0.000213      0.0292       2.453
  YS02001926           JUNCTION      0.05    47.81     0  01:34    0.000296      0.0336      15.894
  YS02001929           JUNCTION     48.26    48.26     0  01:34      0.0341      0.0341       2.261
  YS02001658           JUNCTION      0.00   166.84     0  01:34           0       0.121       2.683
  YS02001661           JUNCTION      0.00   168.26     0  01:34           0       0.124       2.815
  YS02001664           JUNCTION    168.98   168.98     0  01:34       0.125       0.125       0.961
  YS02001622           JUNCTION      0.00   107.07     0  01:34           0      0.0768      26.899
  YS02001633           JUNCTION    122.18   130.37     0  01:33      0.0888      0.0934      49.622
  YS02001649           JUNCTION      0.00   253.17     0  01:34           0       0.108      50.346
  YS02001757           JUNCTION      0.00   473.84     0  01:34           0       0.215      73.228
  YS02001895           JUNCTION      0.00   210.06     0  01:33           0       0.125      12.867
  YS02001625           JUNCTION      0.00    92.95     0  01:33           0      0.0616     111.761
  YS02163301           JUNCTION      0.00    73.94     0  01:31           0      0.0334     207.679
  YS02163601           JUNCTION      0.11   102.25     0  01:34    0.000622      0.0491     153.717
  YS02164001           JUNCTION      0.00    91.24     0  01:34           0      0.0313     160.416
  YS02001647           JUNCTION      0.00   169.63     0  01:34           0      0.0482     101.545
  YSB1154              JUNCTION     27.45    27.45     0  01:34      0.0275       0.028      16.963
  YSB6556              JUNCTION      0.00    26.83     0  01:34           0      0.0262      28.413
  YSB1174              JUNCTION     22.98    22.98     0  01:34      0.0277      0.0281      16.299
  YSB1171              JUNCTION      0.00    48.85     0  01:34           0      0.0528      32.052
  YS02006553           JUNCTION      0.00   282.71     0  01:34           0       0.145      18.016
  YS02006561           JUNCTION      0.00   498.82     0  01:34           0        0.22       1.459
  YS02006556           JUNCTION      0.00   277.18     0  01:34           0       0.145      12.845
  YS02006558           JUNCTION    198.67   470.26     0  01:34       0.151       0.259       3.329
  YS02001783           JUNCTION      0.00   465.19     0  01:34           0       0.217       3.722
  YS02001784           JUNCTION      1.06   462.99     0  01:34       0.006       0.215       4.887
  YS02001786           JUNCTION      0.06   451.01     0  01:34    0.000319       0.206       4.874
  YS02001788           JUNCTION      0.07   442.43     0  01:34    0.000402       0.196       3.371
  YS02001790           JUNCTION      0.15   436.72     0  01:34    0.000877       0.191       4.299
  YS02001791           JUNCTION      0.00   428.35     0  01:34           0       0.183       1.953
  YS02001793           JUNCTION      0.00   424.79     0  01:34           0        0.18       9.227
  WSC                  OUTFALL       0.00   406.34     0  00:29           0        1.63       0.000
  JK-storage           STORAGE       0.00   622.06     0  01:33           0       0.315       5.251
  CC-storage           STORAGE       0.00   463.70     0  01:34           0       0.123       1.591
  XR-storage           STORAGE     446.30   446.30     0  01:34        1.31        1.91      -0.002
  
  
  **********************
  Node Surcharge Summary
  **********************
  
  Surcharging occurs when water rises above the top of the highest conduit.
  ---------------------------------------------------------------------
                                               Max. Height   Min. Depth
                                   Hours       Above Crown    Below Rim
  Node                 Type      Surcharged         Meters       Meters
  ---------------------------------------------------------------------
  WS02006109           JUNCTION        0.03          0.131        1.689
  WS02006256           JUNCTION        0.14          2.050        0.000
  WS02006228           JUNCTION        0.03          0.157        2.043
  YS02001762           JUNCTION        0.01          0.036        1.114
  YS02001759           JUNCTION        0.01          0.051        1.159
  YS02001649           JUNCTION        0.01          0.052        0.998
  YS02001757           JUNCTION        0.04          0.149        1.061
  YS02163601           JUNCTION        0.01          0.036        1.044
  
  
  *********************
  Node Flooding Summary
  *********************
  
  Flooding refers to all water that overflows a node, whether it ponds or not.
  --------------------------------------------------------------------------
                                                             Total   Maximum
                                 Maximum   Time of Max       Flood    Ponded
                        Hours       Rate    Occurrence      Volume     Depth
  Node                 Flooded       LPS   days hr:min    10^6 ltr    Meters
  --------------------------------------------------------------------------
  WS02006256              0.03    172.27      0  01:34       0.009     0.000
  
  
  **********************
  Storage Volume Summary
  **********************
  
  --------------------------------------------------------------------------------------------------
                         Average     Avg  Evap Exfil       Maximum     Max    Time of Max    Maximum
                          Volume    Pcnt  Pcnt  Pcnt        Volume    Pcnt     Occurrence    Outflow
  Storage Unit           1000 m3    Full  Loss  Loss       1000 m3    Full    days hr:min        LPS
  --------------------------------------------------------------------------------------------------
  JK-storage               0.167      57     0     0         0.247      85       0  01:33     421.09
  CC-storage               0.008       0     0     0         0.121       1       0  01:34       0.00
  XR-storage               0.232      25     0     0         0.600      65       0  00:00     380.00
  
  
  ***********************
  Outfall Loading Summary
  ***********************
  
  ---------------------------------------------------------------------------------------------------------------------------------
                         Flow       Avg       Max       Total         Total         Total         Total         Total         Total
                         Freq      Flow      Flow      Volume           COD            SS            TN            TP         NH4-N
  Outfall Node           Pcnt       LPS       LPS    10^6 ltr            kg            kg            kg            kg            kg
  ---------------------------------------------------------------------------------------------------------------------------------
  WSC                   99.93    304.64    406.34       1.631       245.121       392.190        23.522         2.940        14.700
  ---------------------------------------------------------------------------------------------------------------------------------
  System                99.93    304.64    406.34       1.631       245.121       392.190        23.522         2.940        14.700
  
  
  ********************
  Link Flow Summary
  ********************
  
  -----------------------------------------------------------------------------
                                 Maximum  Time of Max   Maximum    Max/    Max/
                                  |Flow|   Occurrence   |Veloc|    Full    Full
  Link                 Type          LPS  days hr:min     m/sec    Flow   Depth
  -----------------------------------------------------------------------------
  WS02003066WSF200     CONDUIT      0.00     0  00:00      0.00    0.00    0.01
  WS02006287WS02006284 CONDUIT    398.06     0  01:34      2.01    0.18    0.30
  WS02006284WS02006280 CONDUIT    395.71     0  01:34      2.25    0.17    0.28
  WS02006280WS02006229 CONDUIT    395.40     0  01:34      3.63    0.08    0.20
  WS02006229WS02006228 CONDUIT    513.46     0  01:34      1.02    1.70    1.00
  WS02006256WS02006235 CONDUIT    253.30     0  01:32      3.58    2.68    1.00
  WS02006253WS02006251 CONDUIT     83.95     0  01:34      0.63    0.25    0.38
  WS02006252WS02006251 CONDUIT      0.00     0  00:00      0.00    0.00    0.00
  WS02006251WS02006249 CONDUIT     82.50     0  01:34      0.69    0.24    0.35
  WS02006249WS02006248 CONDUIT     81.13     0  01:34      0.79    0.44    0.31
  WS02006248WS02006247 CONDUIT     80.18     0  01:34      0.76    0.17    0.32
  WS02006247WS02006245 CONDUIT     78.65     0  01:34      0.71    0.62    0.33
  WS02006245WS02006243 CONDUIT     78.37     0  01:33      0.84    0.23    0.36
  WS02006243WS02006242 CONDUIT     72.66     0  01:32      0.67    0.16    0.50
  WS02006242WS02006240 CONDUIT     67.22     0  01:31      0.56    0.27    0.60
  WS02006240WS02006239 CONDUIT     61.95     0  01:30      0.75    0.19    0.63
  WS02006239WS02006238 CONDUIT     57.08     0  01:34      0.57    0.18    0.76
  WS02006238WS02006235 CONDUIT     71.55     0  01:34      0.64    0.16    0.80
  WS02006235WS02006234 CONDUIT    187.04     0  01:33      0.69    1.97    0.76
  WS02006234WS02006232 CONDUIT    163.84     0  01:33      0.54    0.33    0.87
  WS02006232WS02006231 CONDUIT    147.74     0  01:33      0.59    0.31    0.88
  WS02006231WS02006230 CONDUIT    130.36     0  01:34      0.56    1.98    0.81
  WS02006230WS02006229 CONDUIT    122.93     0  01:34      0.36    2.74    1.00
  WS02006228WS02006109 CONDUIT    513.13     0  01:34      1.02    2.24    1.00
  WS02006116WS02004401 CONDUIT    410.66     0  01:34      0.87    0.57    0.69
  WS02006115WS02006116 CONDUIT    443.14     0  01:34      1.06    0.57    0.62
  WS02006113WS02006111 CONDUIT    502.59     0  01:34      2.38    0.60    0.44
  WS02006112WS02006115 CONDUIT    476.82     0  01:34      0.74    0.28    0.76
  WS02006111WS02006112 CONDUIT    482.93     0  01:34      1.36    0.23    0.66
  WS02006110WS02006113 CONDUIT    507.83     0  01:34      1.22    0.46    0.77
  WS02006109WS02006110 CONDUIT    514.10     0  01:34      1.02    0.99    1.00
  WS02004411WS02004412 CONDUIT    216.64     0  01:34      1.10    0.31    0.35
  WS02004401WS02004402 CONDUIT    388.23     0  01:34      0.82    0.47    0.71
  WS02004413WS02003067 CONDUIT     62.95     0  01:34      0.31    0.03    0.31
  WS02004412WS02004413 CONDUIT    149.20     0  01:33      1.03    0.10    0.43
  WS02004410WS02004411 CONDUIT    251.99     0  01:34      0.98    0.34    0.36
  WS02004409WS02004410 CONDUIT    274.03     0  01:34      0.97    0.35    0.39
  WS02004407WS02004409 CONDUIT    298.03     0  01:34      1.44    0.11    0.31
  WS02004406WS02004407 CONDUIT    309.81     0  01:34      0.75    0.14    0.52
  WS02004405WS02004406 CONDUIT    328.47     0  01:34      0.48    0.65    0.81
  WS02004404WS02004405 CONDUIT    353.19     0  01:34      0.52    3.46    0.81
  WS02004403WS02004404 CONDUIT    349.64     0  01:33      0.54    0.25    0.78
  WS02004402WS02004403 CONDUIT    371.46     0  01:34      0.71    0.53    0.73
  WS02004139WS02001211 CONDUIT    380.32     0  00:22      0.90    0.48    0.57
  WS02004138WS02004139 CONDUIT    394.13     0  00:00      3.62    0.08    0.42
  WS02003067WS02003066 CONDUIT      0.04     0  01:34      0.00    0.00    0.10
  WS02001213WS02003059 CONDUIT    387.73     0  00:20      0.89    0.64    0.68
  WS02001212WS02001213 CONDUIT    387.67     0  00:40      1.32    0.60    0.40
  WS02001211WS02001212 CONDUIT    387.67     0  00:35      0.78    0.30    0.60
  WS02003072WS02003073 CONDUIT    404.54     0  00:27      1.29    0.87    0.32
  WS02003069WS02003072 CONDUIT    404.59     0  00:24      1.26    0.19    0.33
  WS02003060WS02003069 CONDUIT    404.43     0  00:21      1.52    0.16    0.29
  WS02003059WS02003060 CONDUIT    387.70     0  00:22      0.95    0.25    0.52
  HS02004901HS02004770 CONDUIT     20.22     0  01:34      0.08    0.08    0.42
  HS02004876HS02004881 CONDUIT     73.81     0  01:34      0.93    0.79    0.11
  HS02004870HS02004876 CONDUIT     59.46     0  01:34      0.64    0.04    0.13
  HS02004842HS02004848 CONDUIT      9.01     0  01:34      0.04    0.01    0.30
  HS02004837HS02004842 CONDUIT      8.42     0  01:34      0.42    0.01    0.32
  HS02004830HS02004837 CONDUIT     41.25     0  01:34      0.56    0.04    0.11
  HS02004824HS02004830 CONDUIT     40.75     0  01:34      0.58    0.05    0.10
  HS02004817HS02004824 CONDUIT     73.17     0  01:34      0.22    0.03    0.47
  HS02004770HS02004777 CONDUIT    105.44     0  01:34      0.35    0.19    0.43
  HS02004799HS02004480 CONDUIT    259.18     0  01:34      0.83    0.33    0.45
  HS02004792HS02004799 CONDUIT    237.42     0  01:34      0.94    0.15    0.36
  HS02004788HS02004792 CONDUIT    135.70     0  01:34      1.05    0.09    0.19
  HS02004785HS02004788 CONDUIT    102.37     0  01:34      0.70    0.77    0.21
  HS02004777HS02004785 CONDUIT    103.71     0  01:34      0.42    0.13    0.35
  HS02004480HS02004478 CONDUIT    303.54     0  01:34      1.26    1.28    0.34
  HS02004479HS02004480 CONDUIT     46.19     0  01:34      0.41    0.04    0.43
  HS02004862HS02004870 CONDUIT     43.97     0  01:34      0.63    0.05    0.10
  HS02004848HS02004852 CONDUIT     20.02     0  01:34      0.44    0.02    0.07
  HS02004856HS02004862 CONDUIT     30.58     0  01:34      0.47    0.03    0.09
  HS02004852HS02004856 CONDUIT     19.18     0  01:34      0.22    0.02    0.12
  HS02004802HS02004478 CONDUIT     97.30     0  01:34      0.39    0.09    0.36
  HS02004478WS02006287 CONDUIT    399.80     0  01:34      1.72    0.11    0.26
  HS02004817HS02004807 CONDUIT     71.35     0  01:34      0.16    0.04    0.62
  HS02004807HS02004802 CONDUIT     99.19     0  01:34      0.35    0.19    0.41
  YS02001759YS02001757 CONDUIT    230.61     0  01:34      0.32    0.16    1.00
  YS02001762YS02001759 CONDUIT    100.41     0  01:27      0.17    0.12    1.00
  YS02001765YS02001762 CONDUIT     90.67     0  01:32      0.29    0.09    0.98
  YS02001770YS02001767 CONDUIT    128.10     0  01:34      0.45    0.51    0.92
  YS02001774YS02001770 CONDUIT     74.23     0  01:26      0.38    0.05    0.93
  YS02001779YS02001774 CONDUIT     33.33     0  01:27      0.12    0.02    0.85
  YS02001649YS02001757 CONDUIT    222.21     0  01:34      0.28    0.13    1.00
  YS02001767YS02001765 CONDUIT    103.60     0  01:33      0.43    0.13    0.95
  YS02006561YS02001783 CONDUIT    465.19     0  01:34      1.96    0.24    0.48
  YS02001783YS02001784 CONDUIT    461.93     0  01:34      1.40    0.64    0.62
  YS02001784YS02001785 CONDUIT    450.95     0  01:34      1.48    1.05    0.58
  YS02001788YS02001790 CONDUIT    436.57     0  01:34      2.04    0.32    0.44
  YS02001790YS02001791 CONDUIT    428.35     0  01:34      2.40    0.47    0.38
  YS02001791YS02001793 CONDUIT    424.79     0  01:34      4.18    0.18    0.64
  YS02001910YS02001907 CONDUIT    121.79     0  01:33      0.49    0.07    0.84
  YS02001786YS02001788 CONDUIT    442.36     0  01:34      1.92    0.85    0.47
  YS02001915YS02001910 CONDUIT    133.89     0  01:34      0.69    0.07    0.63
  YS02001918YS02001915 CONDUIT     33.53     0  01:30      0.44    0.02    0.35
  YS02001923YS02001920 CONDUIT     44.76     0  01:34      0.51    0.02    0.17
  YS02001926YS02001923 CONDUIT     45.19     0  01:34      0.57    0.06    0.16
  YS02001929YS02001926 CONDUIT     47.76     0  01:34      0.63    0.02    0.15
  YS02001920YS02001918 CONDUIT     41.12     0  01:34      0.48    0.04    0.22
  YS02001629YS02163301 CONDUIT     62.53     0  01:31      0.16    0.08    0.90
  YS02001619YS02001622 CONDUIT    107.07     0  01:34      0.74    0.16    0.49
  YS02001622YS02001625 CONDUIT     92.95     0  01:33      0.50    0.05    0.65
  YS02001625YS02001629 CONDUIT     70.16     0  01:33      0.31    0.03    0.65
  YS02163301YS02001633 CONDUIT     73.94     0  01:31      0.18    0.07    0.94
  YS02163601YS02164001 CONDUIT     91.24     0  01:34      0.12    0.08    0.98
  YS02164001YS02001641 CONDUIT     85.72     0  01:34      0.13    0.12    0.97
  YS02001641YS02001644 CONDUIT     70.30     0  01:34      0.19    0.23    0.99
  YS02001647YS02001649 CONDUIT    142.70     0  01:34      0.19    0.08    0.90
  YS02006553YS02006556 CONDUIT    277.18     0  01:34      0.37    0.24    0.92
  YS02006556YS02006558 CONDUIT    273.11     0  01:34      0.36    0.22    0.95
  YSB6556YSB1171       CONDUIT     26.17     0  01:34      0.10    0.03    0.70
  YS02001907YS02006553 CONDUIT    282.71     0  01:34      0.31    0.33    1.00
  YS02006558YS02006561 CONDUIT    498.82     0  01:34      2.72    1.10    0.62
  YS02001633YS02163601 CONDUIT    102.14     0  01:34      0.21    0.11    0.98
  YS02001644YS02001647 CONDUIT    169.63     0  01:34      0.23    0.10    0.90
  YS02001745YS02001748 CONDUIT    127.38     0  01:34      1.67    0.05    0.20
  YS02001748YS02001751 CONDUIT    126.39     0  01:33      1.24    0.06    0.42
  YS02001751YS02001754 CONDUIT    117.09     0  01:30      1.06    0.06    0.62
  YS02001754YS02001757 CONDUIT    116.48     0  01:31      0.33    0.05    0.89
  YS02001882YS02001884 CONDUIT      9.30     0  01:31      0.18    0.01    0.58
  YS02001884YS02001887 CONDUIT     19.69     0  01:26      0.13    0.03    0.67
  YS02001890YS02001895 CONDUIT    210.06     0  01:33      0.40    0.10    0.64
  YS02001895YS02001898 CONDUIT    205.78     0  01:34      0.60    0.36    0.50
  YS02001898YS02001901 CONDUIT    193.47     0  01:33      0.43    0.12    0.58
  YS02001901YS02001904 CONDUIT    183.58     0  01:34      0.35    0.28    0.63
  YS02001904YS02001907 CONDUIT    176.07     0  01:34      0.27    0.06    0.79
  YS02001887YS02001890 CONDUIT    218.87     0  01:33      0.36    0.37    0.73
  YS02001652YS02001649 CONDUIT    143.30     0  01:31      0.77    0.07    0.90
  YS02001655YS02001652 CONDUIT    142.34     0  01:33      1.15    0.07    0.66
  YS02001658YS02001655 CONDUIT    160.73     0  01:33      1.43    0.07    0.37
  YS02001661YS02001658 CONDUIT    166.84     0  01:34      1.77    0.07    0.18
  YS02001664YS02001661 CONDUIT    168.26     0  01:34      1.51    0.05    0.20
  YSB1154YSB6556       CONDUIT     26.83     0  01:34      0.15    0.05    0.59
  YSB1174YSB1171       CONDUIT     22.68     0  01:34      0.08    0.03    0.71
  YSB1171HS02004479    CONDUIT     46.77     0  01:34      0.54    0.03    0.56
  HS02004881HS02006253 CONDUIT     82.22     0  01:34      2.22    0.02    0.05
  YS02001793JiankangQianchi CONDUIT    622.06     0  01:33      0.85    0.05    0.98
  YS02001757CaochengTiaoxuchi CONDUIT    463.70     0  01:34      1.12    0.20    0.52
  WSF200WS02003060     CONDUIT      3.21     0  00:10      0.04    0.00    0.15
  1                    CONDUIT    406.34     0  00:29      2.58    0.14    0.25
  CC-Pump-1            PUMP         0.00     0  00:00              0.00
  CC-Pump-2            PUMP         0.00     0  00:00              0.00
  JK-Pump-1            PUMP       128.51     0  01:34              0.43
  JK-Pump-2            PUMP       292.58     0  01:34              0.43
  XR-Pump-1            PUMP        95.00     0  00:00              1.00
  XR-Pump-2            PUMP        95.00     0  00:00              1.00
  XR-Pump-3            PUMP        95.00     0  00:00              1.00
  XR-Pump-4            PUMP        95.00     0  00:00              1.00
  
  
  ***************************
  Flow Classification Summary
  ***************************
  
  -------------------------------------------------------------------------------------
                      Adjusted    ---------- Fraction of Time in Flow Class ---------- 
                       /Actual         Up    Down  Sub   Sup   Up    Down  Norm  Inlet 
  Conduit               Length    Dry  Dry   Dry   Crit  Crit  Crit  Crit  Ltd   Ctrl  
  -------------------------------------------------------------------------------------
  WS02003066WSF200        1.00   0.11  0.89  0.00  0.00  0.00  0.00  0.00  0.00  0.00
  WS02006287WS02006284    1.00   0.39  0.17  0.00  0.02  0.43  0.00  0.00  0.02  0.00
  WS02006284WS02006280    1.00   0.52  0.00  0.00  0.00  0.00  0.00  0.48  0.00  0.00
  WS02006280WS02006229    1.00   0.52  0.00  0.00  0.00  0.00  0.00  0.48  0.00  0.00
  WS02006229WS02006228    1.00   0.00  0.00  0.00  0.96  0.00  0.00  0.04  0.00  0.00
  WS02006256WS02006235    1.00   0.72  0.00  0.00  0.25  0.03  0.00  0.00  0.02  0.00
  WS02006253WS02006251    1.00   0.18  0.24  0.00  0.47  0.00  0.10  0.00  0.00  0.00
  WS02006252WS02006251    1.00   1.00  0.00  0.00  0.00  0.00  0.00  0.00  0.00  0.00
  WS02006251WS02006249    1.00   0.00  0.00  0.00  1.00  0.00  0.00  0.00  0.68  0.00
  WS02006249WS02006248    1.00   0.00  0.07  0.00  0.26  0.00  0.67  0.00  0.00  0.00
  WS02006248WS02006247    1.00   0.08  0.00  0.00  0.72  0.00  0.00  0.20  0.13  0.00
  WS02006247WS02006245    1.00   0.09  0.00  0.00  0.50  0.00  0.00  0.41  0.00  0.00
  WS02006245WS02006243    1.00   0.12  0.00  0.00  0.31  0.00  0.00  0.57  0.00  0.00
  WS02006243WS02006242    1.00   0.15  0.00  0.00  0.32  0.00  0.00  0.53  0.11  0.00
  WS02006242WS02006240    1.00   0.19  0.43  0.00  0.28  0.00  0.11  0.00  0.00  0.00
  WS02006240WS02006239    1.00   0.62  0.00  0.00  0.20  0.00  0.00  0.18  0.00  0.00
  WS02006239WS02006238    1.00   0.63  0.00  0.00  0.27  0.00  0.00  0.10  0.00  0.00
  WS02006238WS02006235    1.00   0.65  0.07  0.00  0.28  0.00  0.00  0.00  0.00  0.00
  WS02006235WS02006234    1.00   0.73  0.00  0.00  0.21  0.00  0.05  0.00  0.00  0.00
  WS02006234WS02006232    1.00   0.68  0.06  0.00  0.26  0.00  0.00  0.00  0.01  0.00
  WS02006232WS02006231    1.00   0.68  0.00  0.00  0.29  0.03  0.00  0.00  0.02  0.00
  WS02006231WS02006230    1.00   0.65  0.00  0.00  0.35  0.00  0.00  0.00  0.00  0.00
  WS02006230WS02006229    1.00   0.00  0.00  0.00  0.88  0.00  0.00  0.12  0.00  0.00
  WS02006228WS02006109    1.00   0.00  0.00  0.00  0.99  0.00  0.00  0.00  0.01  0.00
  WS02006116WS02004401    1.00   0.41  0.00  0.00  0.59  0.00  0.00  0.00  0.00  0.00
  WS02006115WS02006116    1.00   0.41  0.00  0.00  0.28  0.00  0.00  0.31  0.00  0.00
  WS02006113WS02006111    1.00   0.24  0.00  0.00  0.11  0.65  0.00  0.00  0.03  0.00
  WS02006112WS02006115    1.00   0.26  0.14  0.00  0.57  0.00  0.02  0.00  0.00  0.00
  WS02006111WS02006112    1.00   0.26  0.00  0.00  0.69  0.02  0.00  0.03  0.60  0.00
  WS02006110WS02006113    1.00   0.04  0.19  0.00  0.76  0.00  0.00  0.00  0.00  0.00
  WS02006109WS02006110    1.00   0.00  0.04  0.00  0.91  0.00  0.05  0.00  0.00  0.00
  WS02004411WS02004412    1.00   0.82  0.00  0.00  0.16  0.01  0.00  0.00  0.00  0.00
  WS02004401WS02004402    1.00   0.42  0.00  0.00  0.58  0.00  0.00  0.00  0.10  0.00
  WS02004413WS02003067    1.00   0.86  0.10  0.00  0.00  0.00  0.04  0.00  0.00  0.00
  WS02004412WS02004413    1.00   0.85  0.00  0.00  0.12  0.04  0.00  0.00  0.01  0.00
  WS02004410WS02004411    1.00   0.81  0.00  0.00  0.18  0.01  0.00  0.00  0.00  0.00
  WS02004409WS02004410    1.00   0.80  0.00  0.00  0.19  0.01  0.00  0.00  0.00  0.00
  WS02004407WS02004409    1.00   0.80  0.00  0.00  0.06  0.14  0.00  0.00  0.06  0.00
  WS02004406WS02004407    1.00   0.01  0.79  0.00  0.20  0.00  0.00  0.00  0.00  0.00
  WS02004405WS02004406    1.00   0.00  0.00  0.00  1.00  0.00  0.00  0.00  0.21  0.00
  WS02004404WS02004405    1.00   0.00  0.00  0.00  1.00  0.00  0.00  0.00  0.01  0.00
  WS02004403WS02004404    1.00   0.00  0.44  0.00  0.56  0.00  0.00  0.00  0.20  0.00
  WS02004402WS02004403    1.00   0.42  0.00  0.00  0.58  0.00  0.00  0.00  0.00  0.00
  WS02004139WS02001211    1.00   0.00  0.00  0.00  0.99  0.00  0.01  0.00  0.00  0.00
  WS02004138WS02004139    1.00   0.00  0.00  0.00  0.97  0.02  0.00  0.01  0.99  0.00
  WS02003067WS02003066    1.00   0.96  0.04  0.00  0.00  0.00  0.00  0.00  0.00  0.00
  WS02001213WS02003059    1.00   0.01  0.01  0.00  0.98  0.00  0.00  0.01  0.01  0.00
  WS02001212WS02001213    1.00   0.01  0.00  0.00  0.00  0.00  0.98  0.00  0.00  0.00
  WS02001211WS02001212    1.00   0.00  0.01  0.00  0.99  0.00  0.00  0.00  0.00  0.00
  WS02003072WS02003073    1.00   0.00  0.00  0.00  0.00  0.00  0.00  1.00  0.00  0.00
  WS02003069WS02003072    1.00   0.00  0.00  0.00  0.98  0.02  0.00  0.00  0.40  0.00
  WS02003060WS02003069    1.00   0.00  0.00  0.00  0.91  0.09  0.00  0.00  0.34  0.00
  WS02003059WS02003060    1.00   0.00  0.00  0.00  0.99  0.01  0.00  0.00  0.02  0.00
  HS02004901HS02004770    1.00   0.48  0.00  0.00  0.52  0.00  0.00  0.00  0.00  0.00
  HS02004876HS02004881    1.00   0.07  0.00  0.00  0.75  0.18  0.00  0.00  0.00  0.00
  HS02004870HS02004876    1.00   0.02  0.00  0.00  0.95  0.03  0.00  0.00  0.73  0.00
  HS02004842HS02004848    1.00   0.00  0.48  0.00  0.52  0.00  0.00  0.00  0.08  0.00
  HS02004837HS02004842    1.00   0.00  0.00  0.00  0.98  0.02  0.00  0.00  0.54  0.00
  HS02004830HS02004837    1.00   0.00  0.00  0.00  1.00  0.00  0.00  0.00  0.95  0.00
  HS02004824HS02004830    1.00   0.00  0.00  0.00  1.00  0.00  0.00  0.00  0.00  0.00
  HS02004817HS02004824    1.00   0.00  0.00  0.00  1.00  0.00  0.00  0.00  1.00  0.00
  HS02004770HS02004777    1.00   0.00  0.48  0.00  0.52  0.00  0.00  0.00  0.05  0.00
  HS02004799HS02004480    1.00   0.00  0.14  0.00  0.44  0.00  0.42  0.00  0.00  0.00
  HS02004792HS02004799    1.00   0.00  0.00  0.00  0.96  0.04  0.00  0.00  0.92  0.00
  HS02004788HS02004792    1.00   0.00  0.00  0.00  0.97  0.03  0.00  0.00  0.90  0.00
  HS02004785HS02004788    1.00   0.00  0.00  0.00  1.00  0.00  0.00  0.00  0.01  0.00
  HS02004777HS02004785    1.00   0.00  0.00  0.00  1.00  0.00  0.00  0.00  0.52  0.00
  HS02004480HS02004478    1.00   0.49  0.00  0.00  0.00  0.00  0.00  0.51  0.00  0.00
  HS02004479HS02004480    1.00   0.14  0.00  0.00  0.86  0.00  0.00  0.00  0.52  0.00
  HS02004862HS02004870    1.00   0.00  0.00  0.00  1.00  0.00  0.00  0.00  0.11  0.00
  HS02004848HS02004852    1.00   0.48  0.00  0.00  0.52  0.00  0.00  0.00  0.00  0.00
  HS02004856HS02004862    1.00   0.00  0.57  0.00  0.43  0.00  0.00  0.00  0.23  0.00
  HS02004852HS02004856    1.00   0.48  0.03  0.00  0.49  0.00  0.00  0.00  0.27  0.00
  HS02004802HS02004478    1.00   0.49  0.02  0.00  0.49  0.00  0.00  0.00  0.08  0.00
  HS02004478WS02006287    1.00   0.56  0.00  0.00  0.05  0.39  0.00  0.00  0.06  0.00
  HS02004817HS02004807    1.00   0.00  0.48  0.00  0.52  0.00  0.00  0.00  0.05  0.00
  HS02004807HS02004802    1.00   0.48  0.00  0.00  0.46  0.00  0.00  0.06  0.01  0.00
  YS02001759YS02001757    1.00   0.00  0.00  0.00  1.00  0.00  0.00  0.00  0.74  0.00
  YS02001762YS02001759    1.00   0.00  0.01  0.00  0.99  0.00  0.00  0.00  0.08  0.00
  YS02001765YS02001762    1.00   0.00  0.00  0.00  1.00  0.00  0.00  0.00  0.64  0.00
  YS02001770YS02001767    1.00   0.00  0.00  0.00  1.00  0.00  0.00  0.00  0.00  0.00
  YS02001774YS02001770    1.00   0.01  0.49  0.00  0.50  0.00  0.00  0.00  0.06  0.00
  YS02001779YS02001774    1.00   0.00  0.00  0.00  1.00  0.00  0.00  0.00  0.79  0.00
  YS02001649YS02001757    1.00   0.00  0.00  0.00  1.00  0.00  0.00  0.00  0.74  0.00
  YS02001767YS02001765    1.00   0.00  0.00  0.00  1.00  0.00  0.00  0.00  0.01  0.00
  YS02006561YS02001783    1.00   0.62  0.00  0.00  0.01  0.37  0.00  0.00  0.11  0.00
  YS02001783YS02001784    1.00   0.00  0.63  0.00  0.37  0.00  0.00  0.00  0.01  0.00
  YS02001784YS02001785    1.00   0.00  0.00  0.00  1.00  0.00  0.00  0.00  0.75  0.00
  YS02001788YS02001790    1.00   0.00  0.00  0.00  0.68  0.32  0.00  0.00  0.85  0.00
  YS02001790YS02001791    1.00   0.00  0.00  0.00  0.06  0.94  0.00  0.00  0.09  0.00
  YS02001791YS02001793    1.00   0.00  0.00  0.00  0.09  0.91  0.00  0.00  0.05  0.00
  YS02001910YS02001907    1.00   0.00  0.00  0.00  0.89  0.01  0.00  0.10  0.58  0.00
  YS02001786YS02001788    1.00   0.00  0.00  0.00  0.70  0.30  0.00  0.00  0.00  0.00
  YS02001915YS02001910    1.00   0.00  0.00  0.00  0.89  0.11  0.00  0.00  0.63  0.00
  YS02001918YS02001915    1.00   0.00  0.02  0.00  0.92  0.06  0.00  0.00  0.29  0.00
  YS02001923YS02001920    1.00   0.00  0.00  0.00  1.00  0.00  0.00  0.00  1.00  0.00
  YS02001926YS02001923    1.00   0.00  0.28  0.00  0.00  0.00  0.72  0.00  0.00  0.00
  YS02001929YS02001926    1.00   0.00  0.48  0.00  0.52  0.00  0.00  0.00  0.35  0.00
  YS02001920YS02001918    1.00   0.00  0.02  0.00  0.98  0.00  0.00  0.00  0.00  0.00
  YS02001629YS02163301    1.00   0.53  0.03  0.00  0.44  0.00  0.00  0.00  0.00  0.00
  YS02001619YS02001622    1.00   0.48  0.00  0.00  0.52  0.00  0.00  0.00  0.00  0.00
  YS02001622YS02001625    1.00   0.48  0.00  0.00  0.49  0.02  0.00  0.00  0.13  0.00
  YS02001625YS02001629    1.00   0.49  0.14  0.00  0.18  0.00  0.19  0.00  0.00  0.00
  YS02163301YS02001633    1.00   0.00  0.53  0.00  0.47  0.00  0.00  0.00  0.00  0.00
  YS02163601YS02164001    1.00   0.00  0.31  0.00  0.69  0.00  0.00  0.00  0.00  0.00
  YS02164001YS02001641    1.00   0.03  0.28  0.00  0.69  0.00  0.00  0.00  0.27  0.00
  YS02001641YS02001644    1.00   0.00  0.02  0.00  0.98  0.00  0.00  0.00  0.00  0.00
  YS02001647YS02001649    1.00   0.00  0.58  0.00  0.42  0.00  0.00  0.00  0.03  0.00
  YS02006553YS02006556    1.00   0.05  0.00  0.00  0.95  0.00  0.00  0.00  0.14  0.00
  YS02006556YS02006558    1.00   0.00  0.01  0.00  0.99  0.00  0.00  0.00  0.00  0.00
  YSB6556YSB1171          1.00   0.15  0.32  0.00  0.53  0.00  0.00  0.00  0.00  0.00
  YS02001907YS02006553    1.00   0.01  0.08  0.00  0.91  0.00  0.00  0.00  0.02  0.00
  YS02006558YS02006561    1.00   0.62  0.00  0.00  0.01  0.37  0.00  0.00  0.12  0.00
  YS02001633YS02163601    1.00   0.00  0.03  0.00  0.97  0.00  0.00  0.00  0.71  0.00
  YS02001644YS02001647    1.00   0.00  0.58  0.00  0.42  0.00  0.00  0.00  0.00  0.00
  YS02001745YS02001748    1.00   0.00  0.00  0.00  0.00  0.04  0.00  0.96  0.01  0.00
  YS02001748YS02001751    1.00   0.00  0.00  0.00  0.67  0.33  0.00  0.00  0.69  0.00
  YS02001751YS02001754    1.00   0.00  0.00  0.00  0.30  0.02  0.00  0.68  0.06  0.00
  YS02001754YS02001757    1.00   0.00  0.00  0.00  0.98  0.02  0.00  0.00  0.79  0.00
  YS02001882YS02001884    1.00   0.53  0.01  0.00  0.46  0.00  0.00  0.00  0.00  0.00
  YS02001884YS02001887    1.00   0.22  0.20  0.00  0.57  0.00  0.00  0.00  0.00  0.00
  YS02001890YS02001895    1.00   0.01  0.54  0.00  0.45  0.00  0.00  0.00  0.00  0.00
  YS02001895YS02001898    1.00   0.55  0.01  0.00  0.33  0.00  0.11  0.00  0.00  0.00
  YS02001898YS02001901    1.00   0.56  0.00  0.00  0.43  0.01  0.00  0.00  0.04  0.00
  YS02001901YS02001904    1.00   0.56  0.00  0.00  0.43  0.00  0.00  0.00  0.00  0.00
  YS02001904YS02001907    1.00   0.01  0.56  0.00  0.43  0.00  0.00  0.00  0.00  0.00
  YS02001887YS02001890    1.00   0.00  0.01  0.00  0.88  0.00  0.11  0.00  0.00  0.00
  YS02001652YS02001649    1.00   0.00  0.00  0.00  0.97  0.03  0.00  0.00  0.71  0.00
  YS02001655YS02001652    1.00   0.00  0.00  0.00  0.31  0.02  0.00  0.67  0.06  0.00
  YS02001658YS02001655    1.00   0.00  0.51  0.00  0.17  0.32  0.00  0.00  0.08  0.00
  YS02001661YS02001658    1.00   0.51  0.00  0.00  0.00  0.49  0.00  0.00  0.00  0.00
  YS02001664YS02001661    1.00   0.48  0.00  0.00  0.17  0.35  0.00  0.00  0.34  0.00
  YSB1154YSB6556          1.00   0.47  0.00  0.00  0.53  0.00  0.00  0.00  0.05  0.00
  YSB1174YSB1171          1.00   0.19  0.17  0.00  0.65  0.00  0.00  0.00  0.00  0.00
  YSB1171HS02004479       1.00   0.15  0.00  0.00  0.80  0.01  0.00  0.05  0.47  0.00
  HS02004881HS02006253    1.00   0.21  0.00  0.00  0.00  0.00  0.00  0.79  0.00  0.00
  YS02001793JiankangQianchi    1.00   0.00  0.01  0.00  0.99  0.00  0.00  0.00  0.94  0.00
  YS02001757CaochengTiaoxuchi    1.00   0.00  0.79  0.00  0.20  0.00  0.00  0.00  0.00  0.00
  WSF200WS02003060        1.00   0.00  0.11  0.00  0.89  0.00  0.00  0.00  0.42  0.00
  1                       1.00   0.00  0.00  0.00  0.00  1.00  0.00  0.00  0.53  0.00
  
  
  *************************
  Conduit Surcharge Summary
  *************************
  
  ----------------------------------------------------------------------------
                                                           Hours        Hours 
                         --------- Hours Full --------   Above Full   Capacity
  Conduit                Both Ends  Upstream  Dnstream   Normal Flow   Limited
  ----------------------------------------------------------------------------
  WS02006229WS02006228        0.03      0.04      0.03      0.10         0.03
  WS02006256WS02006235        0.07      0.07      0.14      0.06         0.01
  WS02006235WS02006234        0.01      0.01      0.01      0.05         0.01
  WS02006231WS02006230        0.01      0.01      0.01      0.04         0.01
  WS02006230WS02006229        0.06      0.06      0.06      0.04         0.06
  WS02006228WS02006109        0.03      0.05      0.03      0.17         0.03
  WS02006111WS02006112        0.01      0.01      0.04      0.01         0.01
  WS02006110WS02006113        0.01      0.01      0.04      0.01         0.01
  WS02006109WS02006110        0.01      0.01      0.05      0.01         0.01
  WS02004404WS02004405        0.01      0.01      0.01      0.13         0.01
  HS02004480HS02004478        0.01      0.01      0.01      0.14         0.01
  YS02001759YS02001757        0.01      0.01      0.04      0.01         0.01
  YS02001762YS02001759        0.01      0.01      0.01      0.01         0.01
  YS02001765YS02001762        0.01      0.01      0.01      0.01         0.01
  YS02001649YS02001757        0.01      0.01      0.04      0.01         0.01
  YS02001784YS02001785        0.01      0.01      0.01      0.01         0.01
  YS02001791YS02001793        0.01      0.01      0.02      0.01         0.01
  YS02163601YS02164001        0.01      0.01      0.01      0.01         0.01
  YS02001647YS02001649        0.01      0.01      0.01      0.01         0.01
  YS02001907YS02006553        0.02      0.02      0.05      0.01         0.01
  YS02006558YS02006561        0.01      0.01      0.01      0.01         0.01
  YS02001633YS02163601        0.01      0.01      0.01      0.01         0.01
  YS02001754YS02001757        0.01      0.01      0.04      0.01         0.01
  YS02001652YS02001649        0.01      0.01      0.01      0.01         0.01
  YS02001793JiankangQianchi        0.01      0.01      1.56      0.01         0.01
  YS02001757CaochengTiaoxuchi        0.01      0.01      0.04      0.01         0.01
  
  
  ***************
  Pumping Summary
  ***************
  
  ---------------------------------------------------------------------------------------------------------
                                                  Min       Avg       Max     Total     Power    % Time Off
                        Percent   Number of      Flow      Flow      Flow    Volume     Usage    Pump Curve
  Pump                 Utilized   Start-Ups       LPS       LPS       LPS  10^6 ltr     Kw-hr    Low   High
  ---------------------------------------------------------------------------------------------------------
  CC-Pump-1                0.00           0      0.00      0.00      0.00     0.000      0.00    0.0    0.0
  CC-Pump-2                0.00           0      0.00      0.00      0.00     0.000      0.00    0.0    0.0
  JK-Pump-1                4.56           1      0.00     65.57    128.51     0.017      0.15    0.0    0.0
  JK-Pump-2                4.56           1      0.00    149.29    292.58     0.038      0.35    0.0  100.0
  XR-Pump-1              100.00           1      0.00     95.00     95.00     0.538     10.63    0.0    0.0
  XR-Pump-2               89.40           2      0.00     66.94     95.00     0.376      7.14    0.0    0.0
  XR-Pump-3               89.40           2      0.00     66.94     95.00     0.376      7.14    0.0    0.0
  XR-Pump-4               89.40           2      0.00     66.94     95.00     0.376      7.14    0.0    0.0
  
  
  ***************************
  Link Pollutant Load Summary
  ***************************
  
  ------------------------------------------------------------------------------------------
                                 COD            SS            TN            TP         NH4-N
  Link                            kg            kg            kg            kg            kg
  ------------------------------------------------------------------------------------------
  WS02003066WSF200             0.000         0.000         0.000         0.000         0.000
  WS02006287WS02006284        40.488        76.790         1.205         0.116         0.653
  WS02006284WS02006280        39.376        74.619         1.178         0.114         0.640
  WS02006280WS02006229        39.197        74.258         1.174         0.113         0.638
  WS02006229WS02006228        36.714        69.472         1.105         0.107         0.601
  WS02006256WS02006235         2.002         3.431         0.082         0.009         0.047
  WS02006253WS02006251         8.768        17.526         0.183         0.014         0.090
  WS02006252WS02006251         0.000         0.000         0.000         0.000         0.000
  WS02006251WS02006249         8.289        16.455         0.186         0.015         0.094
  WS02006249WS02006248         7.533        14.990         0.164         0.013         0.082
  WS02006248WS02006247         7.283        14.446         0.162         0.013         0.082
  WS02006247WS02006245         6.805        13.488         0.151         0.012         0.076
  WS02006245WS02006243         6.259        12.391         0.139         0.011         0.070
  WS02006243WS02006242         5.434        10.705         0.123         0.010         0.063
  WS02006242WS02006240         3.934         7.717         0.090         0.007         0.046
  WS02006240WS02006239         3.151         6.160         0.073         0.006         0.037
  WS02006239WS02006238         2.663         5.156         0.066         0.006         0.034
  WS02006238WS02006235         2.037         3.868         0.056         0.005         0.030
  WS02006235WS02006234         2.716         4.987         0.087         0.008         0.048
  WS02006234WS02006232         2.312         4.301         0.071         0.007         0.039
  WS02006232WS02006231         2.011         3.754         0.061         0.006         0.033
  WS02006231WS02006230         1.796         3.351         0.056         0.005         0.031
  WS02006230WS02006229         2.218         4.139         0.071         0.007         0.039
  WS02006228WS02006109        34.111        64.386         1.037         0.101         0.565
  WS02006116WS02004401        20.123        37.117         0.698         0.071         0.390
  WS02006115WS02006116        22.965        42.556         0.779         0.079         0.433
  WS02006113WS02006111        28.199        52.520         0.967         0.098         0.539
  WS02006112WS02006115        25.929        48.178         0.870         0.088         0.483
  WS02006111WS02006112        26.915        50.000         0.938         0.096         0.524
  WS02006110WS02006113        29.797        55.582         1.014         0.103         0.565
  WS02006109WS02006110        32.784        61.251         1.114         0.113         0.620
  WS02004411WS02004412         1.752         3.142         0.072         0.008         0.041
  WS02004401WS02004402        17.292        31.784         0.609         0.063         0.341
  WS02004413WS02003067         0.066         0.118         0.003         0.000         0.002
  WS02004412WS02004413         1.020         1.824         0.043         0.005         0.025
  WS02004410WS02004411         2.472         4.440         0.100         0.011         0.057
  WS02004409WS02004410         3.368         6.062         0.134         0.014         0.076
  WS02004407WS02004409         4.435         8.005         0.173         0.018         0.098
  WS02004406WS02004407         5.114         9.247         0.196         0.021         0.112
  WS02004405WS02004406         8.467        15.235         0.349         0.038         0.201
  WS02004404WS02004405        11.041        20.048         0.423         0.045         0.240
  WS02004403WS02004404        12.386        22.601         0.453         0.047         0.256
  WS02004402WS02004403        14.617        26.757         0.526         0.055         0.296
  WS02004139WS02001211       240.400       384.653        23.048         2.880        14.401
  WS02004138WS02004139       245.523       392.862        23.531         2.940        14.702
  WS02003067WS02003066         0.000         0.000         0.000         0.000         0.000
  WS02001213WS02003059       238.049       380.879        22.834         2.854        14.269
  WS02001212WS02001213       245.415       392.668        23.535         2.941        14.707
  WS02001211WS02001212       245.911       393.464        23.582         2.947        14.736
  WS02003072WS02003073       251.229       401.963        24.105         3.013        15.064
  WS02003069WS02003072       253.805       406.085        24.352         3.043        15.218
  WS02003060WS02003069       256.826       410.919        24.640         3.079        15.398
  WS02003059WS02003060       237.504       380.005        22.784         2.847        14.238
  HS02004901HS02004770         2.309         4.444         0.043         0.003         0.020
  HS02004876HS02004881         6.920        13.789         0.152         0.011         0.076
  HS02004870HS02004876         5.207        10.329         0.127         0.010         0.064
  HS02004842HS02004848         0.308         0.564         0.007         0.000         0.003
  HS02004837HS02004842         4.367         7.004         0.413         0.052         0.258
  HS02004830HS02004837        10.959        19.280         0.712         0.085         0.434
  HS02004824HS02004830        10.553        18.467         0.701         0.084         0.428
  HS02004817HS02004824        13.582        23.760         0.878         0.104         0.534
  HS02004770HS02004777         9.479        18.585         0.192         0.013         0.088
  HS02004799HS02004480        28.873        54.873         0.775         0.071         0.407
  HS02004792HS02004799        26.974        50.645         0.782         0.074         0.417
  HS02004788HS02004792        13.645        25.549         0.489         0.049         0.271
  HS02004785HS02004788         7.889        15.191         0.206         0.017         0.105
  HS02004777HS02004785         8.809        16.943         0.240         0.021         0.123
  HS02004480HS02004478        31.606        60.578         0.758         0.066         0.388
  HS02004479HS02004480         7.362        13.531         0.305         0.034         0.178
  HS02004862HS02004870         3.459         6.688         0.090         0.007         0.046
  HS02004848HS02004852         1.288         2.431         0.026         0.002         0.012
  HS02004856HS02004862         2.388         4.744         0.046         0.003         0.022
  HS02004852HS02004856         1.034         1.921         0.022         0.001         0.010
  HS02004802HS02004478        11.226        20.622         0.524         0.058         0.309
  HS02004478WS02006287        41.426        78.652         1.228         0.118         0.665
  HS02004817HS02004807         8.525        14.984         0.516         0.060         0.312
  HS02004807HS02004802        11.997        22.201         0.551         0.061         0.324
  YS02001759YS02001757         7.143        12.197         0.201         0.018         0.108
  YS02001762YS02001759         3.551         5.928         0.127         0.013         0.071
  YS02001765YS02001762         3.060         5.045         0.126         0.013         0.072
  YS02001770YS02001767         4.195         7.220         0.103         0.008         0.053
  YS02001774YS02001770         2.303         3.948         0.052         0.003         0.026
  YS02001779YS02001774         1.214         2.012         0.069         0.008         0.041
  YS02001649YS02001757         3.820         6.316         0.110         0.010         0.057
  YS02001767YS02001765         3.261         5.411         0.135         0.014         0.077
  YS02006561YS02001783        17.831        30.561         0.574         0.054         0.315
  YS02001783YS02001784        17.127        29.323         0.555         0.052         0.305
  YS02001784YS02001785        17.747        30.175         0.676         0.068         0.383
  YS02001788YS02001790        16.518        28.013         0.650         0.067         0.370
  YS02001790YS02001791        16.053        27.179         0.649         0.067         0.371
  YS02001791YS02001793        15.735        26.620         0.641         0.066         0.367
  YS02001910YS02001907         7.908        12.944         0.522         0.060         0.316
  YS02001786YS02001788        16.985        28.842         0.657         0.067         0.373
  YS02001915YS02001910         8.955        14.879         0.509         0.056         0.303
  YS02001918YS02001915         5.081         8.061         0.428         0.053         0.265
  YS02001923YS02001920         1.689         2.654         0.054         0.005         0.029
  YS02001926YS02001923         1.598         2.520         0.036         0.003         0.018
  YS02001929YS02001926         1.794         2.835         0.036         0.002         0.017
  YS02001920YS02001918         5.289         8.410         0.416         0.051         0.257
  YS02001629YS02163301         0.871         1.365         0.020         0.001         0.010
  YS02001619YS02001622         3.679         6.130         0.081         0.005         0.037
  YS02001622YS02001625         2.593         4.225         0.058         0.004         0.027
  YS02001625YS02001629         1.205         1.937         0.028         0.002         0.013
  YS02163301YS02001633         1.121         1.792         0.024         0.002         0.012
  YS02163601YS02164001         1.359         2.144         0.044         0.004         0.024
  YS02164001YS02001641         1.105         1.711         0.029         0.003         0.015
  YS02001641YS02001644         1.750         2.756         0.039         0.003         0.019
  YS02001647YS02001649         1.623         2.655         0.034         0.002         0.016
  YS02006553YS02006556        11.368        18.566         0.581         0.064         0.343
  YS02006556YS02006558        10.951        17.843         0.529         0.057         0.310
  YSB6556YSB1171               3.528         6.621         0.115         0.012         0.065
  YS02001907YS02006553        12.351        20.351         0.639         0.071         0.378
  YS02006558YS02006561        18.151        31.138         0.582         0.055         0.319
  YS02001633YS02163601         3.043         4.899         0.089         0.008         0.048
  YS02001644YS02001647         2.829         4.686         0.054         0.004         0.026
  YS02001745YS02001748         5.103         8.756         0.107         0.006         0.051
  YS02001748YS02001751         4.823         8.227         0.106         0.007         0.052
  YS02001751YS02001754         3.976         6.713         0.090         0.006         0.044
  YS02001754YS02001757         3.189         5.234         0.116         0.011         0.064
  YS02001882YS02001884         0.456         0.737         0.010         0.001         0.005
  YS02001884YS02001887         1.733         2.892         0.037         0.003         0.019
  YS02001890YS02001895        12.334        21.596         0.234         0.018         0.115
  YS02001895YS02001898        10.783        18.804         0.205         0.016         0.101
  YS02001898YS02001901         9.249        16.007         0.179         0.014         0.089
  YS02001901YS02001904         7.754        13.298         0.169         0.014         0.087
  YS02001904YS02001907         6.800        11.479         0.205         0.020         0.113
  YS02001887YS02001890        14.885        26.110         0.315         0.026         0.160
  YS02001652YS02001649         4.932         8.227         0.122         0.009         0.059
  YS02001655YS02001652         6.397        10.821         0.150         0.011         0.072
  YS02001658YS02001655         7.259        12.396         0.151         0.010         0.069
  YS02001661YS02001658         7.550        12.929         0.157         0.011         0.072
  YS02001664YS02001661         7.791        13.358         0.162         0.011         0.074
  YSB1154YSB6556               4.381         8.537         0.092         0.008         0.047
  YSB1174YSB1171               4.320         8.462         0.104         0.010         0.055
  YSB1171HS02004479            7.953        14.726         0.325         0.036         0.189
  HS02004881HS02006253         8.226        16.482         0.174         0.013         0.086
  YS02001793JiankangQianchi        13.598        22.951         0.567         0.059         0.326
  YS02001757CaochengTiaoxuchi         5.538         9.481         0.115         0.008         0.055
  WSF200WS02003060             0.031         0.049         0.003         0.000         0.002
  1                          245.121       392.190        23.522         2.940        14.700
  CC-Pump-1                    0.000         0.000         0.000         0.000         0.000
  CC-Pump-2                    0.000         0.000         0.000         0.000         0.000
  JK-Pump-1                    0.654         1.101         0.028         0.003         0.016
  JK-Pump-2                    1.490         2.506         0.064         0.007         0.037
  XR-Pump-1                   87.553       140.105         8.385         1.047         5.238
  XR-Pump-2                   53.590        85.749         5.136         0.642         3.209
  XR-Pump-3                   53.590        85.749         5.136         0.642         3.209
  XR-Pump-4                   53.590        85.749         5.136         0.642         3.209
  

  Analysis begun on:  Mon Aug  9 19:21:34 2021
  Analysis ended on:  Mon Aug  9 19:21:34 2021
  Total elapsed time: < 1 sec