
  EPA STORM WATER MANAGEMENT MODEL - VERSION 5.1 (Build 5.3.0.dev0)
  --------------------------------------------------------------

  
  *********************************************************
  NOTE: The summary statistics displayed in this report are
  based on results found at every computational time step,  
  not just on results from each reporting time step.
  *********************************************************
  
  ****************
  Analysis Options
  ****************
  Flow Units ............... CMS
  Process Models:
    Rainfall/Runoff ........ YES
    RDII ................... NO
    Snowmelt ............... NO
    Groundwater ............ NO
    Flow Routing ........... YES
    Ponding Allowed ........ YES
    Water Quality .......... NO
  Infiltration Method ...... HORTON
  Flow Routing Method ...... DYNWAVE
  Surcharge Method ......... EXTRAN
  Starting Date ............ 08/28/2015 08:00:00
  Ending Date .............. 08/28/2015 15:50:00
  Antecedent Dry Days ...... 0.0
  Report Time Step ......... 00:01:00
  Wet Time Step ............ 00:01:00
  Dry Time Step ............ 00:01:00
  Routing Time Step ........ 5.00 sec
  Variable Time Step ....... YES
  Maximum Trials ........... 8
  Number of Threads ........ 1
  Head Tolerance ........... 0.001500 m
  
  
  **************************        Volume         Depth
  Runoff Quantity Continuity     hectare-m            mm
  **************************     ---------       -------
  Total Precipitation ......         0.874         4.850
  Evaporation Loss .........         0.000         0.000
  Infiltration Loss ........         0.000         0.000
  Surface Runoff ...........         0.851         4.723
  Final Storage ............         0.023         0.127
  Continuity Error (%) .....        -0.007
  
  
  **************************        Volume        Volume
  Flow Routing Continuity        hectare-m      10^6 ltr
  **************************     ---------     ---------
  Dry Weather Inflow .......         0.396         3.955
  Wet Weather Inflow .......         0.851         8.511
  Groundwater Inflow .......         0.000         0.000
  RDII Inflow ..............         0.000         0.000
  External Inflow ..........         0.000         0.000
  External Outflow .........         1.207        12.066
  Flooding Loss ............         0.000         0.000
  Evaporation Loss .........         0.000         0.000
  Exfiltration Loss ........         0.000         0.000
  Initial Stored Volume ....         0.000         0.000
  Final Stored Volume ......         0.042         0.424
  Continuity Error (%) .....        -0.191
  
  
  ***************************
  Time-Step Critical Elements
  ***************************
  None
  
  
  ********************************
  Highest Flow Instability Indexes
  ********************************
  All links are stable.
  
  
  *************************
  Routing Time Step Summary
  *************************
  Minimum Time Step           :     4.50 sec
  Average Time Step           :     5.00 sec
  Maximum Time Step           :     5.00 sec
  Percent in Steady State     :     0.00
  Average Iterations per Step :     2.00
  Percent Not Converging      :     0.00
  
  
  ***************************
  Subcatchment Runoff Summary
  ***************************
  
  ------------------------------------------------------------------------------------------------------------------------------
                            Total      Total      Total      Total     Imperv       Perv      Total       Total     Peak  Runoff
                           Precip      Runon       Evap      Infil     Runoff     Runoff     Runoff      Runoff   Runoff   Coeff
  Subcatchment                 mm         mm         mm         mm         mm         mm         mm    10^6 ltr      CMS
  ------------------------------------------------------------------------------------------------------------------------------
  SC01                       4.85       0.00       0.00       0.00       4.76       0.00       4.76        1.57     0.31   0.982
  SC02                       4.85       0.00       0.00       0.00       4.76       0.00       4.76        1.08     0.21   0.981
  SC03                       4.85       0.00       0.00       0.00       4.78       0.00       4.78        0.86     0.17   0.986
  SC04                       4.85       0.00       0.00       0.00       4.66       0.00       4.66        0.32     0.06   0.961
  SC05                       4.85       0.00       0.00       0.00       4.76       0.00       4.76        0.74     0.15   0.981
  SC06                       4.85       0.00       0.00       0.00       4.61       0.00       4.61        1.50     0.26   0.951
  SC07                       4.85       0.00       0.00       0.00       4.66       0.00       4.66        0.22     0.04   0.962
  SC08                       4.85       0.00       0.00       0.00       4.74       0.00       4.74        1.33     0.25   0.976
  SC09                       4.85       0.00       0.00       0.00       4.71       0.00       4.71        0.33     0.06   0.971
  SC010                      4.85       0.00       0.00       0.00       4.74       0.00       4.74        0.56     0.11   0.977
  
  
  ******************
  Node Depth Summary
  ******************
  
  ---------------------------------------------------------------------------------
                                 Average  Maximum  Maximum  Time of Max    Reported
                                   Depth    Depth      HGL   Occurrence   Max Depth
  Node                 Type       Meters   Meters   Meters  days hr:min      Meters
  ---------------------------------------------------------------------------------
  J1                   JUNCTION     0.07     0.14    34.14     0  03:01        0.14
  J3                   JUNCTION     0.15     0.26    18.26     0  04:01        0.26
  CSO7                 JUNCTION     0.10     0.19    34.19     0  03:01        0.19
  J5                   JUNCTION     0.06     0.11    32.11     0  03:01        0.11
  CSO9                 JUNCTION     0.10     0.24    40.24     0  03:01        0.24
  J8                   JUNCTION     0.10     0.20    36.20     0  03:01        0.20
  CSO8                 JUNCTION     0.12     0.33    32.33     0  03:01        0.33
  J10                  JUNCTION     0.09     0.20    29.20     0  03:01        0.20
  J13                  JUNCTION     0.06     0.13    29.13     0  03:01        0.13
  J15                  JUNCTION     0.20     0.38    15.38     0  02:54        0.38
  J16                  JUNCTION     0.06     0.14    30.14     0  03:01        0.14
  CSO10                JUNCTION     0.11     0.28    30.28     0  03:01        0.28
  J12                  JUNCTION     0.14     0.28    26.28     0  02:54        0.28
  J4                   JUNCTION     0.12     0.22    33.22     0  03:02        0.22
  J6                   JUNCTION     0.07     0.14    25.14     0  02:50        0.14
  J2                   JUNCTION     0.08     0.13    25.13     0  02:50        0.13
  J19                  JUNCTION     0.19     0.34     8.34     0  02:50        0.34
  J9                   JUNCTION     0.12     0.22    29.22     0  02:50        0.22
  J14                  JUNCTION     0.17     0.33    20.33     0  04:00        0.33
  J17                  JUNCTION     0.08     0.18    20.18     0  02:50        0.18
  J7                   JUNCTION     0.08     0.16    39.16     0  03:02        0.16
  J11                  JUNCTION     0.09     0.22    31.22     0  03:01        0.22
  J18                  JUNCTION     0.05     0.12    29.12     0  03:01        0.12
  Out_to_WWTP          OUTFALL      0.19     0.34     6.34     0  02:50        0.34
  T5                   STORAGE      0.51     1.58    28.58     0  03:15        1.58
  T4                   STORAGE      0.15     0.54    27.54     0  03:16        0.54
  T6                   STORAGE      0.30     1.02    32.02     0  03:16        1.02
  T3                   STORAGE      0.65     1.79    23.79     0  03:30        1.79
  T2                   STORAGE      0.18     0.64    21.64     0  03:11        0.64
  T1                   STORAGE      1.16     3.61    13.61     0  03:14        3.61
  
  
  *******************
  Node Inflow Summary
  *******************
  
  -------------------------------------------------------------------------------------------------
                                  Maximum  Maximum                  Lateral       Total        Flow
                                  Lateral    Total  Time of Max      Inflow      Inflow     Balance
                                   Inflow   Inflow   Occurrence      Volume      Volume       Error
  Node                 Type           CMS      CMS  days hr:min    10^6 ltr    10^6 ltr     Percent
  -------------------------------------------------------------------------------------------------
  J1                   JUNCTION     0.168    0.168     0  03:01         1.3         1.3       0.006
  J3                   JUNCTION     0.000    0.739     0  04:00           0        7.87       0.298
  CSO7                 JUNCTION     0.052    0.052     0  03:01       0.512       0.512       0.089
  J5                   JUNCTION     0.063    0.112     0  03:01       0.449       0.957       0.173
  CSO9                 JUNCTION     0.069    0.069     0  03:01       0.521       0.521       0.084
  J8                   JUNCTION     0.301    0.367     0  03:01        2.44        2.96       0.180
  CSO8                 JUNCTION     0.264    0.264     0  03:01        1.62        1.62       0.033
  J10                  JUNCTION     0.190    0.447     0  03:01        1.25        2.86       0.182
  J13                  JUNCTION     0.232    0.232     0  03:01        1.55        1.55      -0.053
  J15                  JUNCTION     0.000    1.322     0  02:51           0        12.2       0.454
  J16                  JUNCTION     0.333    0.333     0  03:01        2.13        2.13      -0.009
  CSO10                JUNCTION     0.113    0.113     0  03:01       0.696       0.696       0.061
  J12                  JUNCTION     0.000    0.717     0  02:51           0        5.77       0.244
  J4                   JUNCTION     0.000    0.052     0  03:01           0       0.512       0.736
  J6                   JUNCTION     0.000    0.105     0  02:50           0       0.948       0.196
  J2                   JUNCTION     0.000    0.119     0  02:50           0        1.29       0.143
  J19                  JUNCTION     0.000    1.125     0  02:50           0        12.1       0.071
  J9                   JUNCTION     0.000    0.326     0  02:50           0        2.93       0.363
  J14                  JUNCTION     0.000    0.573     0  04:00           0        5.64       0.081
  J17                  JUNCTION     0.000    0.214     0  02:50           0        1.53       0.154
  J7                   JUNCTION     0.000    0.068     0  03:01           0       0.521       0.616
  J11                  JUNCTION     0.000    0.264     0  03:01           0        1.62       0.367
  J18                  JUNCTION     0.000    0.112     0  03:01           0       0.695       0.106
  Out_to_WWTP          OUTFALL      0.000    1.123     0  02:50           0        12.1       0.000
  T5                   STORAGE      0.000    0.167     0  03:01           0         1.3       0.460
  T4                   STORAGE      0.000    0.111     0  03:01           0       0.955       0.234
  T6                   STORAGE      0.000    0.361     0  03:01           0        2.96       0.376
  T3                   STORAGE      0.000    0.710     0  02:54           0        5.76       0.544
  T2                   STORAGE      0.000    0.230     0  03:01           0        1.55       0.328
  T1                   STORAGE      0.000    1.296     0  02:54           0        12.1       0.262
  
  
  **********************
  Node Surcharge Summary
  **********************
  
  No nodes were surcharged.
  
  
  *********************
  Node Flooding Summary
  *********************
  
  No nodes were flooded.
  
  
  **********************
  Storage Volume Summary
  **********************
  
  --------------------------------------------------------------------------------------------------
                         Average     Avg  Evap Exfil       Maximum     Max    Time of Max    Maximum
                          Volume    Pcnt  Pcnt  Pcnt        Volume    Pcnt     Occurrence    Outflow
  Storage Unit           1000 m3    Full  Loss  Loss       1000 m3    Full    days hr:min        CMS
  --------------------------------------------------------------------------------------------------
  T5                       0.051      10     0     0         0.158      32       0  03:15      0.119
  T4                       0.015       3     0     0         0.054      11       0  03:16      0.105
  T6                       0.036       6     0     0         0.122      20       0  03:16      0.326
  T3                       0.341      13     0     0         0.930      36       0  03:30      0.573
  T2                       0.037       4     0     0         0.128      13       0  03:11      0.214
  T1                       0.162      23     0     0         0.505      72       0  03:14      1.125
  
  
  ***********************
  Outfall Loading Summary
  ***********************
  
  -----------------------------------------------------------
                         Flow       Avg       Max       Total
                         Freq      Flow      Flow      Volume
  Outfall Node           Pcnt       CMS       CMS    10^6 ltr
  -----------------------------------------------------------
  Out_to_WWTP           99.01     0.432     1.123      12.066
  -----------------------------------------------------------
  System                99.01     0.432     1.123      12.066
  
  
  ********************
  Link Flow Summary
  ********************
  
  -----------------------------------------------------------------------------
                                 Maximum  Time of Max   Maximum    Max/    Max/
                                  |Flow|   Occurrence   |Veloc|    Full    Full
  Link                 Type          CMS  days hr:min     m/sec    Flow   Depth
  -----------------------------------------------------------------------------
  C1                   CONDUIT     0.117     0  02:50      1.24    0.04    0.19
  C6                   CONDUIT     0.050     0  03:03      1.24    0.79    0.55
  C2                   CONDUIT     0.104     0  02:50      1.28    0.12    0.33
  C9                   CONDUIT     0.067     0  03:02      1.05    0.23    0.36
  C16                  CONDUIT     0.259     0  03:02      1.46    0.02    0.11
  C3                   CONDUIT     0.571     0  04:00      2.98    0.22    0.29
  C19                  CONDUIT     0.211     0  02:50      1.18    0.07    0.28
  C11                  CONDUIT     0.721     0  04:01      2.70    0.04    0.16
  C20                  CONDUIT     0.330     0  03:01      1.70    0.01    0.13
  C22                  CONDUIT     0.110     0  03:01      0.85    0.05    0.31
  C12                  CONDUIT     0.319     0  02:50      1.61    0.02    0.12
  C17                  CONDUIT     0.441     0  03:01      2.06    0.02    0.12
  C10                  CONDUIT     0.361     0  03:01      1.66    0.04    0.40
  C13                  CONDUIT     0.710     0  02:54      1.57    0.04    0.50
  C18                  CONDUIT     0.230     0  03:01      1.72    0.01    0.19
  C23                  CONDUIT     1.296     0  02:54      1.29    0.14    0.63
  C4                   CONDUIT     0.167     0  03:01      1.98    0.04    0.57
  C7                   CONDUIT     0.111     0  03:01      1.43    0.03    0.32
  C14                  CONDUIT     1.123     0  02:50      3.19    0.06    0.17
  C5                   CONDUIT     0.052     0  03:01      1.22    0.88    0.79
  C8                   CONDUIT     0.068     0  03:01      1.30    0.86    0.63
  C15                  CONDUIT     0.264     0  03:01      2.58    0.84    0.61
  C21                  CONDUIT     0.112     0  03:01      1.66    0.64    0.46
  V4                   ORIFICE     0.105     0  02:50                      5.43
  V5                   ORIFICE     0.119     0  02:50                      6.56
  V1                   ORIFICE     1.125     0  02:50                      6.24
  V6                   ORIFICE     0.326     0  02:50                      5.67
  V3                   ORIFICE     0.573     0  04:00                      5.89
  V2                   ORIFICE     0.214     0  02:50                      5.35
  
  
  ***************************
  Flow Classification Summary
  ***************************
  
  -------------------------------------------------------------------------------------
                      Adjusted    ---------- Fraction of Time in Flow Class ---------- 
                       /Actual         Up    Down  Sub   Sup   Up    Down  Norm  Inlet 
  Conduit               Length    Dry  Dry   Dry   Crit  Crit  Crit  Crit  Ltd   Ctrl  
  -------------------------------------------------------------------------------------
  C1                      1.00   0.00  0.00  0.00  0.78  0.22  0.00  0.00  0.94  0.00
  C6                      1.00   0.00  0.00  0.00  0.01  0.99  0.00  0.00  0.00  0.00
  C2                      1.00   0.00  0.00  0.00  0.53  0.47  0.00  0.00  0.96  0.00
  C9                      1.00   0.00  0.00  0.00  1.00  0.00  0.00  0.00  1.00  0.00
  C16                     1.00   0.00  0.00  0.00  0.59  0.41  0.00  0.00  0.48  0.00
  C3                      1.00   0.00  0.00  0.00  0.06  0.93  0.00  0.00  0.12  0.00
  C19                     1.00   0.00  0.00  0.00  1.00  0.00  0.00  0.00  1.00  0.00
  C11                     1.00   0.00  0.00  0.00  0.04  0.96  0.00  0.00  1.00  0.00
  C20                     1.00   0.00  0.00  0.00  0.72  0.28  0.00  0.00  0.98  0.00
  C22                     1.00   0.00  0.00  0.00  0.98  0.02  0.00  0.00  1.00  0.00
  C12                     1.00   0.00  0.00  0.00  0.21  0.78  0.00  0.00  0.97  0.00
  C17                     1.00   0.00  0.00  0.00  0.49  0.51  0.00  0.00  0.97  0.00
  C10                     1.00   0.00  0.00  0.00  0.63  0.37  0.00  0.00  0.97  0.00
  C13                     1.00   0.00  0.00  0.00  0.78  0.22  0.00  0.00  0.91  0.00
  C18                     1.00   0.00  0.00  0.00  0.37  0.63  0.00  0.00  0.97  0.00
  C23                     1.00   0.00  0.00  0.00  0.87  0.13  0.00  0.00  0.94  0.00
  C4                      1.00   0.00  0.00  0.00  0.74  0.26  0.00  0.00  0.98  0.00
  C7                      1.00   0.00  0.00  0.00  0.31  0.69  0.00  0.00  0.96  0.00
  C14                     1.00   0.00  0.00  0.00  0.00  0.99  0.00  0.00  0.30  0.00
  C5                      1.00   0.00  0.00  0.00  0.89  0.11  0.00  0.00  0.98  0.00
  C8                      1.00   0.00  0.00  0.00  0.00  1.00  0.00  0.00  0.00  0.00
  C15                     1.00   0.00  0.00  0.00  0.00  1.00  0.00  0.00  0.00  0.00
  C21                     1.00   0.00  0.00  0.00  0.00  1.00  0.00  0.00  0.00  0.00
  
  
  *************************
  Conduit Surcharge Summary
  *************************
  
  ----------------------------------------------------------------------------
                                                           Hours        Hours 
                         --------- Hours Full --------   Above Full   Capacity
  Conduit                Both Ends  Upstream  Dnstream   Normal Flow   Limited
  ----------------------------------------------------------------------------
  C23                         0.01      0.01      2.57      0.01         0.01
  C4                          0.01      0.01      1.49      0.01         0.01
  

  Analysis begun on:  Wed Sep  8 17:04:15 2021
  Analysis ended on:  Wed Sep  8 17:04:15 2021
  Total elapsed time: < 1 sec