
  EPA STORM WATER MANAGEMENT MODEL - VERSION 5.1 (Build 5.3.0.dev0)
  --------------------------------------------------------------

  
  *********************************************************
  NOTE: The summary statistics displayed in this report are
  based on results found at every computational time step,  
  not just on results from each reporting time step.
  *********************************************************
  
  ****************
  Analysis Options
  ****************
  Flow Units ............... CMS
  Process Models:
    Rainfall/Runoff ........ YES
    RDII ................... NO
    Snowmelt ............... NO
    Groundwater ............ NO
    Flow Routing ........... YES
    Ponding Allowed ........ YES
    Water Quality .......... NO
  Infiltration Method ...... HORTON
  Flow Routing Method ...... DYNWAVE
  Surcharge Method ......... EXTRAN
  Starting Date ............ 08/28/2015 08:00:00
  Ending Date .............. 08/28/2015 15:50:00
  Antecedent Dry Days ...... 0.0
  Report Time Step ......... 00:01:00
  Wet Time Step ............ 00:01:00
  Dry Time Step ............ 00:01:00
  Routing Time Step ........ 5.00 sec
  Variable Time Step ....... YES
  Maximum Trials ........... 8
  Number of Threads ........ 1
  Head Tolerance ........... 0.001500 m
  
  
  **************************        Volume         Depth
  Runoff Quantity Continuity     hectare-m            mm
  **************************     ---------       -------
  Total Precipitation ......         1.470         8.155
  Evaporation Loss .........         0.000         0.000
  Infiltration Loss ........         0.000         0.000
  Surface Runoff ...........         1.446         8.025
  Final Storage ............         0.024         0.131
  Continuity Error (%) .....        -0.007
  
  
  **************************        Volume        Volume
  Flow Routing Continuity        hectare-m      10^6 ltr
  **************************     ---------     ---------
  Dry Weather Inflow .......         0.396         3.955
  Wet Weather Inflow .......         1.446        14.461
  Groundwater Inflow .......         0.000         0.000
  RDII Inflow ..............         0.000         0.000
  External Inflow ..........         0.000         0.000
  External Outflow .........         1.090        10.901
  Flooding Loss ............         0.184         1.843
  Evaporation Loss .........         0.000         0.000
  Exfiltration Loss ........         0.000         0.000
  Initial Stored Volume ....         0.000         0.000
  Final Stored Volume ......         0.472         4.718
  Continuity Error (%) .....         5.183
  
  
  *************************
  Highest Continuity Errors
  *************************
  Node T3 (14.77%)
  Node T5 (11.45%)
  Node T1 (4.31%)
  Node T2 (3.81%)
  Node T4 (2.15%)
  
  
  ***************************
  Time-Step Critical Elements
  ***************************
  None
  
  
  ********************************
  Highest Flow Instability Indexes
  ********************************
  Link C13 (1)
  
  
  *************************
  Routing Time Step Summary
  *************************
  Minimum Time Step           :     4.50 sec
  Average Time Step           :     5.00 sec
  Maximum Time Step           :     5.00 sec
  Percent in Steady State     :     0.00
  Average Iterations per Step :     2.14
  Percent Not Converging      :     0.66
  
  
  ***************************
  Subcatchment Runoff Summary
  ***************************
  
  ------------------------------------------------------------------------------------------------------------------------------
                            Total      Total      Total      Total     Imperv       Perv      Total       Total     Peak  Runoff
                           Precip      Runon       Evap      Infil     Runoff     Runoff     Runoff      Runoff   Runoff   Coeff
  Subcatchment                 mm         mm         mm         mm         mm         mm         mm    10^6 ltr      CMS
  ------------------------------------------------------------------------------------------------------------------------------
  SC01                       8.16       0.00       0.00       0.00       8.07       0.00       8.07        2.66     0.53   0.989
  SC02                       8.16       0.00       0.00       0.00       8.06       0.00       8.06        1.83     0.37   0.989
  SC03                       8.16       0.00       0.00       0.00       8.09       0.00       8.09        1.46     0.30   0.992
  SC04                       8.16       0.00       0.00       0.00       7.96       0.00       7.96        0.55     0.10   0.976
  SC05                       8.16       0.00       0.00       0.00       8.06       0.00       8.06        1.26     0.25   0.989
  SC06                       8.16       0.00       0.00       0.00       7.91       0.00       7.91        2.57     0.47   0.970
  SC07                       8.16       0.00       0.00       0.00       7.96       0.00       7.96        0.38     0.07   0.976
  SC08                       8.16       0.00       0.00       0.00       8.04       0.00       8.04        2.25     0.44   0.986
  SC09                       8.16       0.00       0.00       0.00       8.01       0.00       8.01        0.55     0.11   0.983
  SC010                      8.16       0.00       0.00       0.00       8.04       0.00       8.04        0.95     0.19   0.986
  
  
  ******************
  Node Depth Summary
  ******************
  
  ---------------------------------------------------------------------------------
                                 Average  Maximum  Maximum  Time of Max    Reported
                                   Depth    Depth      HGL   Occurrence   Max Depth
  Node                 Type       Meters   Meters   Meters  days hr:min      Meters
  ---------------------------------------------------------------------------------
  J1                   JUNCTION     0.08     0.17    34.17     0  03:01        0.17
  J3                   JUNCTION     0.15     0.20    18.20     0  03:52        0.20
  CSO7                 JUNCTION     0.17     1.20    35.20     0  02:38        1.20
  J5                   JUNCTION     0.07     0.14    32.14     0  03:01        0.14
  CSO9                 JUNCTION     0.17     1.51    41.51     0  03:01        1.50
  J8                   JUNCTION     0.12     0.26    36.26     0  03:01        0.25
  CSO8                 JUNCTION     0.20     1.65    33.65     0  03:01        1.65
  J10                  JUNCTION     0.10     0.26    29.26     0  03:01        0.26
  J13                  JUNCTION     0.07     0.17    29.17     0  03:01        0.17
  J15                  JUNCTION     0.22     0.36    15.36     0  03:02        0.36
  J16                  JUNCTION     0.07     0.18    30.18     0  03:01        0.18
  CSO10                JUNCTION     0.14     0.82    30.82     0  03:01        0.82
  J12                  JUNCTION     0.37     0.64    26.64     0  05:03        0.64
  J4                   JUNCTION     0.16     1.09    34.09     0  02:38        0.76
  J6                   JUNCTION     0.09     0.13    25.13     0  03:51        0.13
  J2                   JUNCTION     0.08     0.11    25.11     0  03:51        0.11
  J19                  JUNCTION     0.19     0.24     8.24     0  03:50        0.24
  J9                   JUNCTION     0.14     0.20    29.20     0  03:51        0.20
  J14                  JUNCTION     0.16     0.22    20.22     0  05:30        0.22
  J17                  JUNCTION     0.10     0.15    20.15     0  03:51        0.15
  J7                   JUNCTION     0.09     0.21    39.21     0  03:01        0.21
  J11                  JUNCTION     0.11     0.28    31.28     0  03:01        0.28
  J18                  JUNCTION     0.06     0.16    29.16     0  03:01        0.16
  Out_to_WWTP          OUTFALL      0.19     0.24     6.24     0  03:50        0.24
  T5                   STORAGE      2.65     4.85    31.85     0  03:26        4.85
  T4                   STORAGE      1.32     3.06    30.06     0  03:29        3.06
  T6                   STORAGE      2.17     5.00    36.00     0  03:03        5.00
  T3                   STORAGE      3.09     4.64    26.64     0  05:08        4.64
  T2                   STORAGE      1.38     3.07    24.07     0  03:20        3.07
  T1                   STORAGE      3.44     5.00    15.00     0  02:38        5.00
  
  
  *******************
  Node Inflow Summary
  *******************
  
  -------------------------------------------------------------------------------------------------
                                  Maximum  Maximum                  Lateral       Total        Flow
                                  Lateral    Total  Time of Max      Inflow      Inflow     Balance
                                   Inflow   Inflow   Occurrence      Volume      Volume       Error
  Node                 Type           CMS      CMS  days hr:min    10^6 ltr    10^6 ltr     Percent
  -------------------------------------------------------------------------------------------------
  J1                   JUNCTION     0.274    0.274     0  03:01        1.82        1.82      -0.002
  J3                   JUNCTION     0.000    0.418     0  03:50           0        7.33       0.727
  CSO7                 JUNCTION     0.083    0.083     0  03:01       0.669       0.669       0.067
  J5                   JUNCTION     0.108    0.179     0  03:01       0.677        1.34       0.082
  CSO9                 JUNCTION     0.114    0.114     0  03:01       0.749       0.749       0.070
  J8                   JUNCTION     0.509    0.620     0  03:01        3.52        4.26       0.078
  CSO8                 JUNCTION     0.451    0.451     0  03:01        2.54        2.54       0.024
  J10                  JUNCTION     0.314    0.755     0  03:01        1.84        4.38       0.058
  J13                  JUNCTION     0.385    0.385     0  03:01         2.3         2.3      -0.229
  J15                  JUNCTION     0.000    1.176     0  03:01           0        13.7       0.893
  J16                  JUNCTION     0.557    0.557     0  03:01        3.22        3.22      -0.029
  CSO10                JUNCTION     0.191    0.191     0  03:01        1.08        1.08       0.032
  J12                  JUNCTION     0.000    0.965     0  03:01           0         8.2       1.572
  J4                   JUNCTION     0.000    0.071     0  03:01           0       0.662       0.521
  J6                   JUNCTION     0.000    0.088     0  03:50           0        1.26       0.324
  J2                   JUNCTION     0.000    0.080     0  03:50           0        1.41       0.461
  J19                  JUNCTION     0.000    0.564     0  03:50           0        10.9       0.165
  J9                   JUNCTION     0.000    0.262     0  03:50           0        3.84       0.411
  J14                  JUNCTION     0.000    0.262     0  05:30           0        4.68       0.246
  J17                  JUNCTION     0.000    0.140     0  03:50           0        2.11       0.415
  J7                   JUNCTION     0.000    0.114     0  03:01           0       0.749       0.421
  J11                  JUNCTION     0.000    0.451     0  03:01           0        2.54       0.244
  J18                  JUNCTION     0.000    0.191     0  03:01           0        1.08       0.043
  Out_to_WWTP          OUTFALL      0.000    0.563     0  03:50           0        10.9       0.000
  T5                   STORAGE      0.000    0.272     0  03:01           0        1.82      12.927
  T4                   STORAGE      0.000    0.178     0  03:01           0        1.33       2.195
  T6                   STORAGE      0.000    0.613     0  03:01           0        4.26       2.044
  T3                   STORAGE      0.000    0.952     0  03:02           0        8.07      17.333
  T2                   STORAGE      0.000    0.382     0  03:01           0        2.31       3.956
  T1                   STORAGE      0.000    1.154     0  03:02           0        13.6       4.499
  
  
  **********************
  Node Surcharge Summary
  **********************
  
  Surcharging occurs when water rises above the top of the highest conduit.
  ---------------------------------------------------------------------
                                               Max. Height   Min. Depth
                                   Hours       Above Crown    Below Rim
  Node                 Type      Surcharged         Meters       Meters
  ---------------------------------------------------------------------
  CSO7                 JUNCTION        0.64          0.945        0.000
  CSO9                 JUNCTION        0.74          1.188        0.494
  CSO8                 JUNCTION        0.61          1.200        0.347
  CSO10                JUNCTION        0.12          0.379        0.181
  J4                   JUNCTION        0.60          0.794        0.906
  
  
  *********************
  Node Flooding Summary
  *********************
  
  Flooding refers to all water that overflows a node, whether it ponds or not.
  --------------------------------------------------------------------------
                                                             Total   Maximum
                                 Maximum   Time of Max       Flood    Ponded
                        Hours       Rate    Occurrence      Volume     Depth
  Node                 Flooded       CMS   days hr:min    10^6 ltr    Meters
  --------------------------------------------------------------------------
  CSO7                    0.34     0.012      0  03:01       0.006     0.000
  T6                      0.51     0.368      0  03:03       0.264     0.000
  T1                      1.93     0.657      0  03:02       1.572     0.000
  
  
  **********************
  Storage Volume Summary
  **********************
  
  --------------------------------------------------------------------------------------------------
                         Average     Avg  Evap Exfil       Maximum     Max    Time of Max    Maximum
                          Volume    Pcnt  Pcnt  Pcnt        Volume    Pcnt     Occurrence    Outflow
  Storage Unit           1000 m3    Full  Loss  Loss       1000 m3    Full    days hr:min        CMS
  --------------------------------------------------------------------------------------------------
  T5                       0.265      53     0     0         0.485      97       0  03:26      0.080
  T4                       0.132      26     0     0         0.306      61       0  03:29      0.088
  T6                       0.260      43     0     0         0.600     100       0  03:03      0.262
  T3                       1.608      62     0     0         2.414      93       0  05:08      0.262
  T2                       0.275      28     0     0         0.614      61       0  03:20      0.140
  T1                       0.482      69     0     0         0.700     100       0  02:38      0.564
  
  
  ***********************
  Outfall Loading Summary
  ***********************
  
  -----------------------------------------------------------
                         Flow       Avg       Max       Total
                         Freq      Flow      Flow      Volume
  Outfall Node           Pcnt       CMS       CMS    10^6 ltr
  -----------------------------------------------------------
  Out_to_WWTP           99.01     0.390     0.563      10.901
  -----------------------------------------------------------
  System                99.01     0.390     0.563      10.901
  
  
  ********************
  Link Flow Summary
  ********************
  
  -----------------------------------------------------------------------------
                                 Maximum  Time of Max   Maximum    Max/    Max/
                                  |Flow|   Occurrence   |Veloc|    Full    Full
  Link                 Type          CMS  days hr:min     m/sec    Flow   Depth
  -----------------------------------------------------------------------------
  C1                   CONDUIT     0.079     0  03:51      1.07    0.02    0.15
  C6                   CONDUIT     0.071     0  03:01      1.29    1.12    0.74
  C2                   CONDUIT     0.087     0  03:51      1.41    0.10    0.27
  C9                   CONDUIT     0.111     0  03:01      1.23    0.38    0.47
  C16                  CONDUIT     0.443     0  03:01      1.72    0.04    0.14
  C3                   CONDUIT     0.261     0  05:30      2.26    0.10    0.20
  C19                  CONDUIT     0.138     0  03:51      1.18    0.05    0.25
  C11                  CONDUIT     0.412     0  03:52      2.11    0.02    0.13
  C20                  CONDUIT     0.553     0  03:01      2.16    0.02    0.14
  C22                  CONDUIT     0.188     0  03:01      1.33    0.09    0.32
  C12                  CONDUIT     0.257     0  03:51      1.17    0.02    0.20
  C17                  CONDUIT     0.746     0  03:01      2.63    0.04    0.18
  C10                  CONDUIT     0.613     0  03:01      1.66    0.06    0.59
  C13                  CONDUIT     0.952     0  03:02      1.57    0.06    0.66
  C18                  CONDUIT     0.382     0  03:01      1.72    0.01    0.54
  C23                  CONDUIT     1.154     0  03:02      1.27    0.13    0.62
  C4                   CONDUIT     0.272     0  03:01      1.98    0.07    0.59
  C7                   CONDUIT     0.178     0  03:01      1.43    0.04    0.57
  C14                  CONDUIT     0.563     0  03:50      2.60    0.03    0.12
  C5                   CONDUIT     0.071     0  03:01      1.38    1.21    1.00
  C8                   CONDUIT     0.114     0  03:01      1.61    1.44    0.84
  C15                  CONDUIT     0.451     0  03:01      3.21    1.43    0.81
  C21                  CONDUIT     0.191     0  03:01      1.76    1.09    0.68
  V4                   ORIFICE     0.088     0  03:50                      1.48
  V5                   ORIFICE     0.080     0  03:50                      2.13
  V1                   ORIFICE     0.564     0  03:50                      2.13
  V6                   ORIFICE     0.262     0  03:50                      1.56
  V3                   ORIFICE     0.262     0  05:30                      1.60
  V2                   ORIFICE     0.140     0  03:50                      1.37
  
  
  ***************************
  Flow Classification Summary
  ***************************
  
  -------------------------------------------------------------------------------------
                      Adjusted    ---------- Fraction of Time in Flow Class ---------- 
                       /Actual         Up    Down  Sub   Sup   Up    Down  Norm  Inlet 
  Conduit               Length    Dry  Dry   Dry   Crit  Crit  Crit  Crit  Ltd   Ctrl  
  -------------------------------------------------------------------------------------
  C1                      1.00   0.00  0.00  0.00  0.42  0.58  0.00  0.00  0.95  0.00
  C6                      1.00   0.00  0.00  0.00  0.12  0.88  0.00  0.00  0.00  0.00
  C2                      1.00   0.00  0.00  0.00  0.19  0.81  0.00  0.00  0.95  0.00
  C9                      1.00   0.00  0.00  0.00  1.00  0.00  0.00  0.00  1.00  0.00
  C16                     1.00   0.00  0.00  0.00  0.55  0.45  0.00  0.00  0.43  0.00
  C3                      1.00   0.00  0.00  0.00  0.05  0.94  0.00  0.00  0.08  0.00
  C19                     1.00   0.00  0.00  0.00  1.00  0.00  0.00  0.00  1.00  0.00
  C11                     1.00   0.00  0.00  0.00  0.24  0.76  0.00  0.00  1.00  0.00
  C20                     1.00   0.00  0.00  0.00  0.64  0.36  0.00  0.00  0.98  0.00
  C22                     1.00   0.00  0.00  0.00  0.97  0.02  0.00  0.00  1.00  0.00
  C12                     1.00   0.00  0.00  0.00  0.89  0.11  0.00  0.00  1.00  0.00
  C17                     1.00   0.00  0.00  0.00  0.57  0.43  0.00  0.00  0.97  0.00
  C10                     1.00   0.00  0.00  0.00  0.92  0.08  0.00  0.00  0.97  0.00
  C13                     1.00   0.00  0.00  0.00  0.82  0.18  0.00  0.00  0.33  0.00
  C18                     1.00   0.00  0.00  0.00  0.82  0.18  0.00  0.00  0.97  0.00
  C23                     1.00   0.00  0.00  0.00  0.86  0.14  0.00  0.00  0.94  0.00
  C4                      1.00   0.00  0.00  0.00  0.94  0.06  0.00  0.00  0.98  0.00
  C7                      1.00   0.00  0.00  0.00  0.90  0.10  0.00  0.00  0.96  0.00
  C14                     1.00   0.00  0.00  0.00  0.00  0.99  0.00  0.00  0.18  0.00
  C5                      1.00   0.00  0.00  0.00  0.90  0.10  0.00  0.00  0.89  0.00
  C8                      1.00   0.00  0.00  0.00  0.16  0.84  0.00  0.00  0.00  0.00
  C15                     1.00   0.00  0.00  0.00  0.00  1.00  0.00  0.00  0.00  0.00
  C21                     1.00   0.00  0.00  0.00  0.00  1.00  0.00  0.00  0.00  0.00
  
  
  *************************
  Conduit Surcharge Summary
  *************************
  
  ----------------------------------------------------------------------------
                                                           Hours        Hours 
                         --------- Hours Full --------   Above Full   Capacity
  Conduit                Both Ends  Upstream  Dnstream   Normal Flow   Limited
  ----------------------------------------------------------------------------
  C6                          0.01      0.59      0.01      0.49         0.01
  C10                         0.01      0.01      4.35      0.01         0.01
  C13                         0.01      0.01      5.36      0.01         0.01
  C18                         0.01      0.01      2.25      0.01         0.01
  C23                         0.01      0.01      5.97      0.01         0.01
  C4                          0.01      0.01      6.01      0.01         0.01
  C7                          0.01      0.01      4.27      0.01         0.01
  C5                          0.64      0.64      0.82      0.79         0.62
  C8                          0.01      0.74      0.01      0.78         0.01
  C15                         0.01      0.61      0.01      0.77         0.01
  C21                         0.01      0.12      0.01      0.14         0.01
  

  Analysis begun on:  Wed Sep  8 17:49:03 2021
  Analysis ended on:  Wed Sep  8 17:49:03 2021
  Total elapsed time: < 1 sec