
  EPA STORM WATER MANAGEMENT MODEL - VERSION 5.1 (Build 5.3.0.dev0)
  --------------------------------------------------------------

  
  *********************************************************
  NOTE: The summary statistics displayed in this report are
  based on results found at every computational time step,  
  not just on results from each reporting time step.
  *********************************************************
  
  ****************
  Analysis Options
  ****************
  Flow Units ............... CMS
  Process Models:
    Rainfall/Runoff ........ YES
    RDII ................... NO
    Snowmelt ............... NO
    Groundwater ............ NO
    Flow Routing ........... YES
    Ponding Allowed ........ YES
    Water Quality .......... NO
  Infiltration Method ...... HORTON
  Flow Routing Method ...... DYNWAVE
  Surcharge Method ......... EXTRAN
  Starting Date ............ 08/28/2015 08:00:00
  Ending Date .............. 08/28/2015 15:50:00
  Antecedent Dry Days ...... 0.0
  Report Time Step ......... 00:01:00
  Wet Time Step ............ 00:01:00
  Dry Time Step ............ 00:01:00
  Routing Time Step ........ 5.00 sec
  Variable Time Step ....... YES
  Maximum Trials ........... 8
  Number of Threads ........ 1
  Head Tolerance ........... 0.001500 m
  
  
  **************************        Volume         Depth
  Runoff Quantity Continuity     hectare-m            mm
  **************************     ---------       -------
  Total Precipitation ......         1.350         7.493
  Evaporation Loss .........         0.000         0.000
  Infiltration Loss ........         0.000         0.000
  Surface Runoff ...........         1.326         7.361
  Final Storage ............         0.024         0.132
  Continuity Error (%) .....        -0.009
  
  
  **************************        Volume        Volume
  Flow Routing Continuity        hectare-m      10^6 ltr
  **************************     ---------     ---------
  Dry Weather Inflow .......         0.396         3.955
  Wet Weather Inflow .......         1.326        13.264
  Groundwater Inflow .......         0.000         0.000
  RDII Inflow ..............         0.000         0.000
  External Inflow ..........         0.000         0.000
  External Outflow .........         0.532         5.324
  Flooding Loss ............         0.266         2.657
  Evaporation Loss .........         0.000         0.000
  Exfiltration Loss ........         0.000         0.000
  Initial Stored Volume ....         0.000         0.000
  Final Stored Volume ......         0.698         6.978
  Continuity Error (%) .....        13.134
  
  
  *************************
  Highest Continuity Errors
  *************************
  Node T2 (38.70%)
  Node T4 (25.84%)
  Node T3 (23.49%)
  Node T5 (23.41%)
  Node T6 (18.66%)
  
  
  ***************************
  Time-Step Critical Elements
  ***************************
  None
  
  
  ********************************
  Highest Flow Instability Indexes
  ********************************
  All links are stable.
  
  
  *************************
  Routing Time Step Summary
  *************************
  Minimum Time Step           :     4.50 sec
  Average Time Step           :     5.00 sec
  Maximum Time Step           :     5.00 sec
  Percent in Steady State     :     0.00
  Average Iterations per Step :     2.17
  Percent Not Converging      :     0.64
  
  
  ***************************
  Subcatchment Runoff Summary
  ***************************
  
  ------------------------------------------------------------------------------------------------------------------------------
                            Total      Total      Total      Total     Imperv       Perv      Total       Total     Peak  Runoff
                           Precip      Runon       Evap      Infil     Runoff     Runoff     Runoff      Runoff   Runoff   Coeff
  Subcatchment                 mm         mm         mm         mm         mm         mm         mm    10^6 ltr      CMS
  ------------------------------------------------------------------------------------------------------------------------------
  SC01                       7.49       0.00       0.00       0.00       7.41       0.00       7.41        2.44     0.75   0.988
  SC02                       7.49       0.00       0.00       0.00       7.40       0.00       7.40        1.68     0.51   0.988
  SC03                       7.49       0.00       0.00       0.00       7.42       0.00       7.42        1.34     0.43   0.991
  SC04                       7.49       0.00       0.00       0.00       7.30       0.00       7.30        0.50     0.13   0.974
  SC05                       7.49       0.00       0.00       0.00       7.40       0.00       7.40        1.15     0.35   0.988
  SC06                       7.49       0.00       0.00       0.00       7.24       0.00       7.24        2.36     0.57   0.967
  SC07                       7.49       0.00       0.00       0.00       7.30       0.00       7.30        0.35     0.09   0.974
  SC08                       7.49       0.00       0.00       0.00       7.37       0.00       7.37        2.06     0.59   0.984
  SC09                       7.49       0.00       0.00       0.00       7.35       0.00       7.35        0.51     0.14   0.981
  SC010                      7.49       0.00       0.00       0.00       7.38       0.00       7.38        0.87     0.25   0.985
  
  
  ******************
  Node Depth Summary
  ******************
  
  ---------------------------------------------------------------------------------
                                 Average  Maximum  Maximum  Time of Max    Reported
                                   Depth    Depth      HGL   Occurrence   Max Depth
  Node                 Type       Meters   Meters   Meters  days hr:min      Meters
  ---------------------------------------------------------------------------------
  J1                   JUNCTION     0.08     0.20    34.20     0  03:01        0.20
  J3                   JUNCTION     0.10     0.13    18.13     0  06:30        0.13
  CSO7                 JUNCTION     0.16     1.20    35.20     0  02:48        1.20
  J5                   JUNCTION     0.07     0.15    32.15     0  03:01        0.15
  CSO9                 JUNCTION     0.18     2.00    42.00     0  02:57        2.00
  J8                   JUNCTION     0.11     0.28    36.28     0  03:01        0.28
  CSO8                 JUNCTION     0.20     2.00    34.00     0  02:55        2.00
  J10                  JUNCTION     0.10     0.29    29.29     0  03:01        0.29
  J13                  JUNCTION     0.07     0.19    29.19     0  03:01        0.19
  J15                  JUNCTION     0.16     0.34    15.34     0  03:02        0.34
  J16                  JUNCTION     0.07     0.21    30.21     0  03:01        0.21
  CSO10                JUNCTION     0.14     1.00    31.00     0  02:54        1.00
  J12                  JUNCTION     0.19     0.31    26.31     0  03:02        0.31
  J4                   JUNCTION     0.15     1.21    34.21     0  02:48        0.81
  J6                   JUNCTION     0.05     0.07    25.07     0  05:10        0.07
  J2                   JUNCTION     0.06     0.08    25.08     0  03:58        0.08
  J19                  JUNCTION     0.14     0.17     8.17     0  02:56        0.17
  J9                   JUNCTION     0.08     0.11    29.11     0  04:10        0.11
  J14                  JUNCTION     0.10     0.15    20.15     0  06:11        0.15
  J17                  JUNCTION     0.05     0.07    20.07     0  05:30        0.07
  J7                   JUNCTION     0.09     0.23    39.23     0  03:03        0.23
  J11                  JUNCTION     0.10     0.30    31.30     0  02:59        0.30
  J18                  JUNCTION     0.06     0.16    29.16     0  03:03        0.16
  Out_to_WWTP          OUTFALL      0.14     0.17     6.17     0  04:14        0.17
  T5                   STORAGE      3.28     5.00    32.00     0  03:12        5.00
  T4                   STORAGE      3.07     4.83    31.83     0  04:59        4.83
  T6                   STORAGE      3.50     5.00    36.00     0  02:55        5.00
  T3                   STORAGE      2.79     4.30    26.30     0  07:35        4.30
  T2                   STORAGE      2.95     4.44    25.44     0  05:15        4.44
  T1                   STORAGE      3.02     5.00    15.00     0  02:54        5.00
  
  
  *******************
  Node Inflow Summary
  *******************
  
  -------------------------------------------------------------------------------------------------
                                  Maximum  Maximum                  Lateral       Total        Flow
                                  Lateral    Total  Time of Max      Inflow      Inflow     Balance
                                   Inflow   Inflow   Occurrence      Volume      Volume       Error
  Node                 Type           CMS      CMS  days hr:min    10^6 ltr    10^6 ltr     Percent
  -------------------------------------------------------------------------------------------------
  J1                   JUNCTION     0.369    0.369     0  03:01        1.72        1.72       0.028
  J3                   JUNCTION     0.000    0.178     0  06:24           0        2.98       1.242
  CSO7                 JUNCTION     0.100    0.100     0  03:01       0.637       0.637       0.071
  J5                   JUNCTION     0.133    0.204     0  03:01       0.631        1.25       0.132
  CSO9                 JUNCTION     0.146    0.146     0  03:01       0.703       0.703       0.069
  J8                   JUNCTION     0.607    0.731     0  03:01         3.3        3.99       0.137
  CSO8                 JUNCTION     0.596    0.596     0  03:01        2.36        2.36       0.022
  J10                  JUNCTION     0.449    0.938     0  03:01        1.72        4.05       0.116
  J13                  JUNCTION     0.524    0.524     0  03:01        2.15        2.15      -0.164
  J15                  JUNCTION     0.000    1.098     0  03:01           0        7.38       1.053
  J16                  JUNCTION     0.768    0.768     0  03:01           3           3      -0.011
  CSO10                JUNCTION     0.254    0.254     0  03:01        1.01        1.01       0.034
  J12                  JUNCTION     0.000    0.945     0  03:01           0        5.27       2.958
  J4                   JUNCTION     0.000    0.071     0  03:01           0       0.622       0.542
  J6                   JUNCTION     0.000    0.028     0  05:00           0       0.485       0.832
  J2                   JUNCTION     0.000    0.039     0  03:12           0        0.82       0.624
  J19                  JUNCTION     0.000    0.271     0  02:54           0        5.33       0.197
  J9                   JUNCTION     0.000    0.075     0  03:30           0        1.24       1.394
  J14                  JUNCTION     0.000    0.114     0  07:44           0        1.69       0.412
  J17                  JUNCTION     0.000    0.031     0  05:20           0       0.449       0.878
  J7                   JUNCTION     0.000    0.127     0  03:03           0         0.7       0.451
  J11                  JUNCTION     0.000    0.486     0  02:59           0        2.33       0.266
  J18                  JUNCTION     0.000    0.202     0  03:03           0       0.993       0.087
  Out_to_WWTP          OUTFALL      0.000    0.271     0  02:56           0        5.32       0.000
  T5                   STORAGE      0.000    0.362     0  03:01           0        1.72      30.571
  T4                   STORAGE      0.000    0.201     0  03:01           0        1.25      34.844
  T6                   STORAGE      0.000    0.715     0  03:01           0        3.99      22.934
  T3                   STORAGE      0.000    0.915     0  03:02           0        5.12      30.706
  T2                   STORAGE      0.000    0.514     0  03:01           0        2.15      63.132
  T1                   STORAGE      0.000    1.032     0  03:02           0         7.3       7.574
  
  
  **********************
  Node Surcharge Summary
  **********************
  
  Surcharging occurs when water rises above the top of the highest conduit.
  ---------------------------------------------------------------------
                                               Max. Height   Min. Depth
                                   Hours       Above Crown    Below Rim
  Node                 Type      Surcharged         Meters       Meters
  ---------------------------------------------------------------------
  CSO7                 JUNCTION        0.51          0.945        0.000
  CSO9                 JUNCTION        0.54          1.682        0.000
  CSO8                 JUNCTION        0.48          1.547        0.000
  CSO10                JUNCTION        0.25          0.560        0.000
  J4                   JUNCTION        0.48          0.914        0.786
  
  
  *********************
  Node Flooding Summary
  *********************
  
  Flooding refers to all water that overflows a node, whether it ponds or not.
  --------------------------------------------------------------------------
                                                             Total   Maximum
                                 Maximum   Time of Max       Flood    Ponded
                        Hours       Rate    Occurrence      Volume     Depth
  Node                 Flooded       CMS   days hr:min    10^6 ltr    Meters
  --------------------------------------------------------------------------
  CSO7                    0.33     0.029      0  03:01       0.015     0.000
  CSO9                    0.10     0.019      0  03:01       0.003     0.000
  CSO8                    0.14     0.110      0  03:01       0.025     0.000
  CSO10                   0.15     0.051      0  03:01       0.013     0.000
  T5                      0.79     0.120      0  03:12       0.092     0.000
  T6                      2.79     0.685      0  03:01       1.478     0.000
  T1                      1.21     0.761      0  03:02       1.032     0.000
  
  
  **********************
  Storage Volume Summary
  **********************
  
  --------------------------------------------------------------------------------------------------
                         Average     Avg  Evap Exfil       Maximum     Max    Time of Max    Maximum
                          Volume    Pcnt  Pcnt  Pcnt        Volume    Pcnt     Occurrence    Outflow
  Storage Unit           1000 m3    Full  Loss  Loss       1000 m3    Full    days hr:min        CMS
  --------------------------------------------------------------------------------------------------
  T5                       0.328      66     0     0         0.500     100       0  03:12      0.039
  T4                       0.307      61     0     0         0.483      97       0  04:59      0.028
  T6                       0.420      70     0     0         0.600     100       0  02:55      0.075
  T3                       1.450      56     0     0         2.235      86       0  07:35      0.114
  T2                       0.590      59     0     0         0.887      89       0  05:15      0.031
  T1                       0.423      60     0     0         0.700     100       0  02:54      0.271
  
  
  ***********************
  Outfall Loading Summary
  ***********************
  
  -----------------------------------------------------------
                         Flow       Avg       Max       Total
                         Freq      Flow      Flow      Volume
  Outfall Node           Pcnt       CMS       CMS    10^6 ltr
  -----------------------------------------------------------
  Out_to_WWTP           99.01     0.191     0.271       5.324
  -----------------------------------------------------------
  System                99.01     0.191     0.271       5.324
  
  
  ********************
  Link Flow Summary
  ********************
  
  -----------------------------------------------------------------------------
                                 Maximum  Time of Max   Maximum    Max/    Max/
                                  |Flow|   Occurrence   |Veloc|    Full    Full
  Link                 Type          CMS  days hr:min     m/sec    Flow   Depth
  -----------------------------------------------------------------------------
  C1                   CONDUIT     0.039     0  03:57      1.09    0.01    0.11
  C6                   CONDUIT     0.071     0  03:01      1.29    1.13    0.75
  C2                   CONDUIT     0.028     0  05:10      1.01    0.03    0.17
  C9                   CONDUIT     0.126     0  03:03      1.29    0.43    0.50
  C16                  CONDUIT     0.489     0  03:01      1.76    0.05    0.15
  C3                   CONDUIT     0.115     0  07:43      1.77    0.04    0.14
  C19                  CONDUIT     0.031     0  05:30      0.67    0.01    0.20
  C11                  CONDUIT     0.178     0  06:30      1.77    0.01    0.12
  C20                  CONDUIT     0.753     0  03:01      2.90    0.02    0.14
  C22                  CONDUIT     0.202     0  03:03      1.60    0.09    0.32
  C12                  CONDUIT     0.075     0  04:10      0.97    0.01    0.10
  C17                  CONDUIT     0.916     0  03:01      3.08    0.05    0.15
  C10                  CONDUIT     0.715     0  03:01      1.66    0.07    0.59
  C13                  CONDUIT     0.915     0  03:02      1.41    0.05    0.58
  C18                  CONDUIT     0.514     0  03:01      1.72    0.02    0.55
  C23                  CONDUIT     1.032     0  03:02      1.24    0.11    0.61
  C4                   CONDUIT     0.362     0  03:01      1.98    0.09    0.60
  C7                   CONDUIT     0.201     0  03:01      1.43    0.05    0.58
  C14                  CONDUIT     0.271     0  02:56      2.08    0.02    0.09
  C5                   CONDUIT     0.071     0  03:01      1.39    1.21    1.00
  C8                   CONDUIT     0.127     0  03:03      1.75    1.60    0.86
  C15                  CONDUIT     0.486     0  02:59      3.42    1.55    0.83
  C21                  CONDUIT     0.202     0  03:03      1.83    1.16    0.69
  V4                   ORIFICE     0.028     0  05:00                      0.35
  V5                   ORIFICE     0.039     0  03:12                      1.00
  V1                   ORIFICE     0.271     0  02:54                      1.00
  V6                   ORIFICE     0.075     0  03:30                      0.43
  V3                   ORIFICE     0.114     0  07:44                      0.65
  V2                   ORIFICE     0.031     0  05:20                      0.24
  
  
  ***************************
  Flow Classification Summary
  ***************************
  
  -------------------------------------------------------------------------------------
                      Adjusted    ---------- Fraction of Time in Flow Class ---------- 
                       /Actual         Up    Down  Sub   Sup   Up    Down  Norm  Inlet 
  Conduit               Length    Dry  Dry   Dry   Crit  Crit  Crit  Crit  Ltd   Ctrl  
  -------------------------------------------------------------------------------------
  C1                      1.00   0.00  0.00  0.00  0.01  0.99  0.00  0.00  0.94  0.00
  C6                      1.00   0.00  0.00  0.00  0.09  0.91  0.00  0.00  0.00  0.00
  C2                      1.00   0.00  0.00  0.00  0.47  0.52  0.00  0.00  0.95  0.00
  C9                      1.00   0.00  0.00  0.00  1.00  0.00  0.00  0.00  1.00  0.00
  C16                     1.00   0.00  0.00  0.00  0.56  0.44  0.00  0.00  0.38  0.00
  C3                      1.00   0.00  0.00  0.00  0.05  0.95  0.00  0.00  0.54  0.00
  C19                     1.00   0.00  0.00  0.00  1.00  0.00  0.00  0.00  1.00  0.00
  C11                     1.00   0.00  0.00  0.00  0.36  0.64  0.00  0.00  1.00  0.00
  C20                     1.00   0.00  0.00  0.00  0.54  0.46  0.00  0.00  0.98  0.00
  C22                     1.00   0.00  0.00  0.00  0.74  0.26  0.00  0.00  1.00  0.00
  C12                     1.00   0.00  0.00  0.00  0.97  0.02  0.00  0.00  1.00  0.00
  C17                     1.00   0.00  0.00  0.00  0.46  0.54  0.00  0.00  0.95  0.00
  C10                     1.00   0.00  0.00  0.00  0.96  0.04  0.00  0.00  0.97  0.00
  C13                     1.00   0.00  0.00  0.00  0.87  0.13  0.00  0.00  0.43  0.00
  C18                     1.00   0.00  0.00  0.00  0.94  0.06  0.00  0.00  0.97  0.00
  C23                     1.00   0.00  0.00  0.00  0.85  0.15  0.00  0.00  0.94  0.00
  C4                      1.00   0.00  0.00  0.00  0.96  0.04  0.00  0.00  0.98  0.00
  C7                      1.00   0.00  0.00  0.00  0.94  0.06  0.00  0.00  0.97  0.00
  C14                     1.00   0.00  0.00  0.00  0.00  0.99  0.00  0.00  0.21  0.00
  C5                      1.00   0.00  0.00  0.00  0.89  0.11  0.00  0.00  0.91  0.00
  C8                      1.00   0.00  0.00  0.00  0.11  0.89  0.00  0.00  0.00  0.00
  C15                     1.00   0.00  0.00  0.00  0.00  1.00  0.00  0.00  0.00  0.00
  C21                     1.00   0.00  0.00  0.00  0.00  1.00  0.00  0.00  0.00  0.00
  
  
  *************************
  Conduit Surcharge Summary
  *************************
  
  ----------------------------------------------------------------------------
                                                           Hours        Hours 
                         --------- Hours Full --------   Above Full   Capacity
  Conduit                Both Ends  Upstream  Dnstream   Normal Flow   Limited
  ----------------------------------------------------------------------------
  C6                          0.01      0.48      0.01      0.38         0.01
  C10                         0.01      0.01      5.70      0.01         0.01
  C13                         0.01      0.01      5.08      0.01         0.01
  C18                         0.01      0.01      5.18      0.01         0.01
  C23                         0.01      0.01      5.74      0.01         0.01
  C4                          0.01      0.01      5.90      0.01         0.01
  C7                          0.01      0.01      5.62      0.01         0.01
  C5                          0.51      0.51      0.63      0.59         0.48
  C8                          0.01      0.54      0.01      0.57         0.01
  C15                         0.01      0.48      0.01      0.57         0.01
  C21                         0.01      0.25      0.01      0.26         0.01
  

  Analysis begun on:  Tue Aug 31 20:58:28 2021
  Analysis ended on:  Tue Aug 31 20:58:28 2021
  Total elapsed time: < 1 sec