
  EPA STORM WATER MANAGEMENT MODEL - VERSION 5.1 (Build 5.3.0.dev0)
  --------------------------------------------------------------

  
  *********************************************************
  NOTE: The summary statistics displayed in this report are
  based on results found at every computational time step,  
  not just on results from each reporting time step.
  *********************************************************
  
  ****************
  Analysis Options
  ****************
  Flow Units ............... CMS
  Process Models:
    Rainfall/Runoff ........ YES
    RDII ................... NO
    Snowmelt ............... NO
    Groundwater ............ NO
    Flow Routing ........... YES
    Ponding Allowed ........ YES
    Water Quality .......... NO
  Infiltration Method ...... HORTON
  Flow Routing Method ...... DYNWAVE
  Surcharge Method ......... EXTRAN
  Starting Date ............ 08/28/2015 08:00:00
  Ending Date .............. 08/28/2015 15:50:00
  Antecedent Dry Days ...... 0.0
  Report Time Step ......... 00:01:00
  Wet Time Step ............ 00:01:00
  Dry Time Step ............ 00:01:00
  Routing Time Step ........ 5.00 sec
  Variable Time Step ....... YES
  Maximum Trials ........... 8
  Number of Threads ........ 1
  Head Tolerance ........... 0.001500 m
  
  
  **************************        Volume         Depth
  Runoff Quantity Continuity     hectare-m            mm
  **************************     ---------       -------
  Total Precipitation ......         3.106        17.238
  Evaporation Loss .........         0.000         0.000
  Infiltration Loss ........         0.000         0.000
  Surface Runoff ...........         3.082        17.104
  Final Storage ............         0.024         0.135
  Continuity Error (%) .....        -0.007
  
  
  **************************        Volume        Volume
  Flow Routing Continuity        hectare-m      10^6 ltr
  **************************     ---------     ---------
  Dry Weather Inflow .......         0.396         3.956
  Wet Weather Inflow .......         3.082        30.822
  Groundwater Inflow .......         0.000         0.000
  RDII Inflow ..............         0.000         0.000
  External Inflow ..........         0.000         0.000
  External Outflow .........         0.557         5.568
  Flooding Loss ............         1.861        18.608
  Evaporation Loss .........         0.000         0.000
  Exfiltration Loss ........         0.000         0.000
  Initial Stored Volume ....         0.000         0.000
  Final Stored Volume ......         0.812         8.121
  Continuity Error (%) .....         7.131
  
  
  *************************
  Highest Continuity Errors
  *************************
  Node T2 (21.58%)
  Node T3 (17.67%)
  Node T4 (15.90%)
  Node T5 (12.39%)
  Node T6 (10.11%)
  
  
  ***************************
  Time-Step Critical Elements
  ***************************
  None
  
  
  ********************************
  Highest Flow Instability Indexes
  ********************************
  All links are stable.
  
  
  *************************
  Routing Time Step Summary
  *************************
  Minimum Time Step           :     1.12 sec
  Average Time Step           :     5.00 sec
  Maximum Time Step           :     5.00 sec
  Percent in Steady State     :     0.00
  Average Iterations per Step :     2.19
  Percent Not Converging      :     0.58
  
  
  ***************************
  Subcatchment Runoff Summary
  ***************************
  
  ------------------------------------------------------------------------------------------------------------------------------
                            Total      Total      Total      Total     Imperv       Perv      Total       Total     Peak  Runoff
                           Precip      Runon       Evap      Infil     Runoff     Runoff     Runoff      Runoff   Runoff   Coeff
  Subcatchment                 mm         mm         mm         mm         mm         mm         mm    10^6 ltr      CMS
  ------------------------------------------------------------------------------------------------------------------------------
  SC01                      17.24       0.00       0.00       0.00      17.15       0.00      17.15        5.66     1.56   0.995
  SC02                      17.24       0.00       0.00       0.00      17.15       0.00      17.15        3.90     1.06   0.995
  SC03                      17.24       0.00       0.00       0.00      17.17       0.00      17.17        3.09     0.89   0.996
  SC04                      17.24       0.00       0.00       0.00      17.04       0.00      17.04        1.18     0.29   0.988
  SC05                      17.24       0.00       0.00       0.00      17.15       0.00      17.15        2.67     0.73   0.995
  SC06                      17.24       0.00       0.00       0.00      16.98       0.00      16.98        5.53     1.29   0.985
  SC07                      17.24       0.00       0.00       0.00      17.04       0.00      17.04        0.81     0.20   0.988
  SC08                      17.24       0.00       0.00       0.00      17.12       0.00      17.12        4.79     1.26   0.993
  SC09                      17.24       0.00       0.00       0.00      17.09       0.00      17.09        1.18     0.30   0.992
  SC010                     17.24       0.00       0.00       0.00      17.12       0.00      17.12        2.01     0.53   0.993
  
  
  ******************
  Node Depth Summary
  ******************
  
  ---------------------------------------------------------------------------------
                                 Average  Maximum  Maximum  Time of Max    Reported
                                   Depth    Depth      HGL   Occurrence   Max Depth
  Node                 Type       Meters   Meters   Meters  days hr:min      Meters
  ---------------------------------------------------------------------------------
  J1                   JUNCTION     0.09     0.29    34.29     0  02:42        0.29
  J3                   JUNCTION     0.10     0.14    18.14     0  06:40        0.14
  CSO7                 JUNCTION     0.30     1.20    35.20     0  01:55        1.20
  J5                   JUNCTION     0.08     0.20    32.20     0  02:45        0.20
  CSO9                 JUNCTION     0.42     2.00    42.00     0  02:06        2.00
  J8                   JUNCTION     0.14     0.39    36.39     0  02:46        0.39
  CSO8                 JUNCTION     0.43     2.00    34.00     0  02:02        2.00
  J10                  JUNCTION     0.12     0.35    29.35     0  02:41        0.35
  J13                  JUNCTION     0.08     0.27    29.27     0  02:42        0.27
  J15                  JUNCTION     0.18     0.46    15.46     0  02:44        0.46
  J16                  JUNCTION     0.09     0.30    30.30     0  02:41        0.30
  CSO10                JUNCTION     0.25     1.00    31.00     0  02:01        1.00
  J12                  JUNCTION     0.71     1.15    27.15     0  02:54        1.15
  J4                   JUNCTION     0.22     1.22    34.22     0  01:55        0.77
  J6                   JUNCTION     0.06     0.07    25.07     0  03:47        0.07
  J2                   JUNCTION     0.07     0.08    25.08     0  03:17        0.08
  J19                  JUNCTION     0.14     0.17     8.17     0  02:12        0.17
  J9                   JUNCTION     0.09     0.11    29.11     0  04:10        0.11
  J14                  JUNCTION     0.09     0.15    20.15     0  06:31        0.15
  J17                  JUNCTION     0.04     0.07    20.07     0  05:41        0.07
  J7                   JUNCTION     0.10     0.23    39.23     0  03:09        0.23
  J11                  JUNCTION     0.12     0.30    31.30     0  03:08        0.30
  J18                  JUNCTION     0.07     0.16    29.16     0  02:38        0.16
  Out_to_WWTP          OUTFALL      0.14     0.17     6.17     0  03:55        0.17
  T5                   STORAGE      3.62     5.00    32.00     0  02:24        5.00
  T4                   STORAGE      3.56     5.00    32.00     0  02:43        5.00
  T6                   STORAGE      3.78     5.00    36.00     0  02:16        5.00
  T3                   STORAGE      3.62     5.00    27.00     0  02:50        5.00
  T2                   STORAGE      3.70     5.00    26.00     0  02:35        5.00
  T1                   STORAGE      3.22     5.00    15.00     0  02:11        5.00
  
  
  *******************
  Node Inflow Summary
  *******************
  
  -------------------------------------------------------------------------------------------------
                                  Maximum  Maximum                  Lateral       Total        Flow
                                  Lateral    Total  Time of Max      Inflow      Inflow     Balance
                                   Inflow   Inflow   Occurrence      Volume      Volume       Error
  Node                 Type           CMS      CMS  days hr:min    10^6 ltr    10^6 ltr     Percent
  -------------------------------------------------------------------------------------------------
  J1                   JUNCTION     0.748    0.748     0  02:42        3.24        3.24       0.004
  J3                   JUNCTION     0.000    0.188     0  06:34           0        2.85       0.954
  CSO7                 JUNCTION     0.207    0.207     0  02:44         1.1         1.1       0.043
  J5                   JUNCTION     0.290    0.364     0  02:44         1.3        2.09       0.065
  CSO9                 JUNCTION     0.307    0.307     0  02:43        1.38        1.38       0.032
  J8                   JUNCTION     1.326    1.453     0  02:45        6.47         7.5       0.062
  CSO8                 JUNCTION     1.266    1.266     0  02:42        5.09        5.09       0.011
  J10                  JUNCTION     0.901    1.386     0  02:40        3.48        7.09      -0.064
  J13                  JUNCTION     1.079    1.079     0  02:42        4.37        4.37      -0.115
  J15                  JUNCTION     0.000    1.915     0  02:42           0        10.9       0.550
  J16                  JUNCTION     1.578    1.578     0  02:41        6.21        6.21      -0.016
  CSO10                JUNCTION     0.535    0.535     0  02:42        2.15        2.15       0.017
  J12                  JUNCTION     0.000    1.456     0  02:41           0        8.63      10.445
  J4                   JUNCTION     0.000    0.074     0  02:45           0       0.791       0.424
  J6                   JUNCTION     0.000    0.028     0  03:00           0       0.571       0.442
  J2                   JUNCTION     0.000    0.039     0  02:25           0       0.873       0.584
  J19                  JUNCTION     0.000    0.271     0  02:11           0        5.58       0.180
  J9                   JUNCTION     0.000    0.075     0  02:20           0        1.55       1.182
  J14                  JUNCTION     0.000    0.124     0  06:30           0        1.41       0.309
  J17                  JUNCTION     0.000    0.033     0  05:40           0       0.348       1.207
  J7                   JUNCTION     0.000    0.127     0  03:09           0        1.04       0.297
  J11                  JUNCTION     0.000    0.486     0  03:08           0        3.62       0.184
  J18                  JUNCTION     0.000    0.202     0  02:38           0        1.52       0.059
  Out_to_WWTP          OUTFALL      0.000    0.271     0  02:13           0        5.57       0.000
  T5                   STORAGE      0.000    0.748     0  02:42           0        3.24      14.136
  T4                   STORAGE      0.000    0.363     0  02:45           0        2.09      18.912
  T6                   STORAGE      0.000    1.452     0  02:46           0         7.5      11.250
  T3                   STORAGE      0.000    2.132     0  02:57           0        7.81      21.466
  T2                   STORAGE      0.000    1.079     0  02:42           0        4.37      27.522
  T1                   STORAGE      0.000    1.884     0  02:44           0        10.8       4.424
  
  
  **********************
  Node Surcharge Summary
  **********************
  
  Surcharging occurs when water rises above the top of the highest conduit.
  ---------------------------------------------------------------------
                                               Max. Height   Min. Depth
                                   Hours       Above Crown    Below Rim
  Node                 Type      Surcharged         Meters       Meters
  ---------------------------------------------------------------------
  CSO7                 JUNCTION        1.55          0.945        0.000
  CSO9                 JUNCTION        1.57          1.682        0.000
  CSO8                 JUNCTION        1.54          1.547        0.000
  CSO10                JUNCTION        1.26          0.560        0.000
  J4                   JUNCTION        1.52          0.917        0.783
  
  
  *********************
  Node Flooding Summary
  *********************
  
  Flooding refers to all water that overflows a node, whether it ponds or not.
  --------------------------------------------------------------------------
                                                             Total   Maximum
                                 Maximum   Time of Max       Flood    Ponded
                        Hours       Rate    Occurrence      Volume     Depth
  Node                 Flooded       CMS   days hr:min    10^6 ltr    Meters
  --------------------------------------------------------------------------
  CSO7                    1.37     0.134      0  02:44       0.308     0.000
  CSO9                    1.05     0.180      0  02:43       0.337     0.000
  CSO8                    1.09     0.781      0  02:42       1.463     0.000
  CSO10                   1.11     0.333      0  02:42       0.627     0.000
  T5                      1.71     0.708      0  02:42       1.559     0.000
  T4                      2.56     0.343      0  02:46       0.731     0.000
  T6                      3.36     1.377      0  02:46       4.655     0.000
  T3                      3.73     2.072      0  02:57       2.416     0.000
  T2                      4.05     1.064      0  02:42       2.084     0.000
  T1                      1.58     1.613      0  02:44       4.429     0.000
  
  
  **********************
  Storage Volume Summary
  **********************
  
  --------------------------------------------------------------------------------------------------
                         Average     Avg  Evap Exfil       Maximum     Max    Time of Max    Maximum
                          Volume    Pcnt  Pcnt  Pcnt        Volume    Pcnt     Occurrence    Outflow
  Storage Unit           1000 m3    Full  Loss  Loss       1000 m3    Full    days hr:min        CMS
  --------------------------------------------------------------------------------------------------
  T5                       0.362      72     0     0         0.500     100       0  02:24      0.039
  T4                       0.356      71     0     0         0.500     100       0  02:43      0.028
  T6                       0.454      76     0     0         0.600     100       0  02:16      0.075
  T3                       1.882      72     0     0         2.600     100       0  02:50      0.124
  T2                       0.740      74     0     0         1.000     100       0  02:35      0.033
  T1                       0.451      64     0     0         0.700     100       0  02:11      0.271
  
  
  ***********************
  Outfall Loading Summary
  ***********************
  
  -----------------------------------------------------------
                         Flow       Avg       Max       Total
                         Freq      Flow      Flow      Volume
  Outfall Node           Pcnt       CMS       CMS    10^6 ltr
  -----------------------------------------------------------
  Out_to_WWTP           99.01     0.199     0.271       5.568
  -----------------------------------------------------------
  System                99.01     0.199     0.271       5.568
  
  
  ********************
  Link Flow Summary
  ********************
  
  -----------------------------------------------------------------------------
                                 Maximum  Time of Max   Maximum    Max/    Max/
                                  |Flow|   Occurrence   |Veloc|    Full    Full
  Link                 Type          CMS  days hr:min     m/sec    Flow   Depth
  -----------------------------------------------------------------------------
  C1                   CONDUIT     0.039     0  03:12      1.12    0.01    0.11
  C6                   CONDUIT     0.074     0  02:45      1.29    1.17    0.84
  C2                   CONDUIT     0.028     0  03:47      1.00    0.03    0.17
  C9                   CONDUIT     0.127     0  03:09      1.29    0.43    0.62
  C16                  CONDUIT     0.487     0  02:10      1.82    0.05    0.16
  C3                   CONDUIT     0.124     0  06:32      1.82    0.05    0.14
  C19                  CONDUIT     0.030     0  05:41      0.64    0.01    0.26
  C11                  CONDUIT     0.188     0  06:40      1.80    0.01    0.14
  C20                  CONDUIT     1.577     0  02:41      3.81    0.05    0.19
  C22                  CONDUIT     0.202     0  02:38      1.60    0.09    0.39
  C12                  CONDUIT     0.075     0  04:10      0.59    0.01    0.31
  C17                  CONDUIT     1.381     0  02:41      3.41    0.07    0.37
  C10                  CONDUIT     1.452     0  02:46      1.66    0.15    0.63
  C13                  CONDUIT     2.132     0  02:57      1.45    0.13    0.79
  C18                  CONDUIT     1.079     0  02:42      1.72    0.04    0.57
  C23                  CONDUIT     1.884     0  02:44      1.54    0.21    0.65
  C4                   CONDUIT     0.748     0  02:42      1.98    0.18    0.64
  C7                   CONDUIT     0.363     0  02:45      1.43    0.09    0.60
  C14                  CONDUIT     0.271     0  02:13      2.08    0.02    0.09
  C5                   CONDUIT     0.074     0  02:45      1.44    1.26    1.00
  C8                   CONDUIT     0.127     0  03:09      1.75    1.60    0.86
  C15                  CONDUIT     0.486     0  03:08      3.42    1.55    0.83
  C21                  CONDUIT     0.202     0  02:38      1.82    1.16    0.69
  V4                   ORIFICE     0.028     0  03:00                      0.35
  V5                   ORIFICE     0.039     0  02:25                      1.00
  V1                   ORIFICE     0.271     0  02:11                      1.00
  V6                   ORIFICE     0.075     0  02:20                      0.43
  V3                   ORIFICE     0.124     0  06:30                      0.65
  V2                   ORIFICE     0.033     0  05:40                      0.24
  
  
  ***************************
  Flow Classification Summary
  ***************************
  
  -------------------------------------------------------------------------------------
                      Adjusted    ---------- Fraction of Time in Flow Class ---------- 
                       /Actual         Up    Down  Sub   Sup   Up    Down  Norm  Inlet 
  Conduit               Length    Dry  Dry   Dry   Crit  Crit  Crit  Crit  Ltd   Ctrl  
  -------------------------------------------------------------------------------------
  C1                      1.00   0.00  0.00  0.00  0.02  0.98  0.00  0.00  0.94  0.00
  C6                      1.00   0.00  0.00  0.00  0.22  0.78  0.00  0.00  0.00  0.00
  C2                      1.00   0.00  0.00  0.00  0.14  0.86  0.00  0.00  0.95  0.00
  C9                      1.00   0.00  0.00  0.00  1.00  0.00  0.00  0.00  1.00  0.00
  C16                     1.00   0.00  0.00  0.00  0.54  0.46  0.00  0.00  0.43  0.00
  C3                      1.00   0.00  0.00  0.00  0.05  0.95  0.00  0.00  0.90  0.00
  C19                     1.00   0.00  0.00  0.00  1.00  0.00  0.00  0.00  1.00  0.00
  C11                     1.00   0.00  0.00  0.00  0.37  0.63  0.00  0.00  1.00  0.00
  C20                     1.00   0.00  0.00  0.00  0.52  0.48  0.00  0.00  0.98  0.00
  C22                     1.00   0.00  0.00  0.00  0.77  0.23  0.00  0.00  1.00  0.00
  C12                     1.00   0.00  0.00  0.00  1.00  0.00  0.00  0.00  1.00  0.00
  C17                     1.00   0.00  0.00  0.00  0.65  0.35  0.00  0.00  0.93  0.00
  C10                     1.00   0.00  0.00  0.00  0.96  0.04  0.00  0.00  0.97  0.00
  C13                     1.00   0.00  0.00  0.00  0.85  0.15  0.00  0.00  0.24  0.00
  C18                     1.00   0.00  0.00  0.00  0.94  0.06  0.00  0.00  0.97  0.00
  C23                     1.00   0.00  0.00  0.00  0.84  0.16  0.00  0.00  0.94  0.00
  C4                      1.00   0.00  0.00  0.00  0.96  0.04  0.00  0.00  0.98  0.00
  C7                      1.00   0.00  0.00  0.00  0.94  0.06  0.00  0.00  0.97  0.00
  C14                     1.00   0.00  0.00  0.00  0.00  0.99  0.00  0.00  0.34  0.00
  C5                      1.00   0.00  0.00  0.00  0.91  0.09  0.00  0.00  0.78  0.00
  C8                      1.00   0.00  0.00  0.00  0.23  0.77  0.00  0.00  0.00  0.00
  C15                     1.00   0.00  0.00  0.00  0.00  1.00  0.00  0.00  0.00  0.00
  C21                     1.00   0.00  0.00  0.00  0.00  1.00  0.00  0.00  0.00  0.00
  
  
  *************************
  Conduit Surcharge Summary
  *************************
  
  ----------------------------------------------------------------------------
                                                           Hours        Hours 
                         --------- Hours Full --------   Above Full   Capacity
  Conduit                Both Ends  Upstream  Dnstream   Normal Flow   Limited
  ----------------------------------------------------------------------------
  C6                          0.01      1.52      0.01      1.42         0.01
  C10                         0.01      0.01      6.08      0.01         0.01
  C13                         0.01      0.01      5.72      0.01         0.01
  C18                         0.01      0.01      5.81      0.01         0.01
  C23                         0.01      0.01      6.14      0.01         0.01
  C4                          0.01      0.01      6.25      0.01         0.01
  C7                          0.01      0.01      6.02      0.01         0.01
  C5                          1.55      1.55      1.65      1.61         1.52
  C8                          0.01      1.57      0.01      1.59         0.01
  C15                         0.01      1.54      0.01      1.61         0.01
  C21                         0.01      1.26      0.01      1.27         0.01
  

  Analysis begun on:  Thu Sep  2 19:33:50 2021
  Analysis ended on:  Thu Sep  2 19:33:50 2021
  Total elapsed time: < 1 sec