
  EPA STORM WATER MANAGEMENT MODEL - VERSION 5.1 (Build 5.3.0.dev0)
  --------------------------------------------------------------

  WARNING 04: minimum elevation drop used for Conduit WS02004404WS02004405
  WARNING 03: negative offset ignored for Link YS02001904YS02001907
  
  *********************************************************
  NOTE: The summary statistics displayed in this report are
  based on results found at every computational time step,  
  not just on results from each reporting time step.
  *********************************************************
  
  ****************
  Analysis Options
  ****************
  Flow Units ............... LPS
  Process Models:
    Rainfall/Runoff ........ YES
    RDII ................... NO
    Snowmelt ............... NO
    Groundwater ............ NO
    Flow Routing ........... YES
    Ponding Allowed ........ NO
    Water Quality .......... YES
  Infiltration Method ...... HORTON
  Flow Routing Method ...... DYNWAVE
  Surcharge Method ......... EXTRAN
  Starting Date ............ 08/28/2015 08:00:00
  Ending Date .............. 08/28/2015 15:50:00
  Antecedent Dry Days ...... 8.0
  Report Time Step ......... 00:01:00
  Wet Time Step ............ 00:01:00
  Dry Time Step ............ 00:01:00
  Routing Time Step ........ 5.00 sec
  Variable Time Step ....... YES
  Maximum Trials ........... 8
  Number of Threads ........ 4
  Head Tolerance ........... 0.001500 m
  
  
  **************************        Volume         Depth
  Runoff Quantity Continuity     hectare-m            mm
  **************************     ---------       -------
  Total Precipitation ......         5.556        12.164
  Evaporation Loss .........         0.000         0.000
  Infiltration Loss ........         1.002         2.194
  Surface Runoff ...........         3.688         8.075
  Final Storage ............         0.866         1.897
  Continuity Error (%) .....        -0.019
  
  
  **************************           COD            SS            TN            TP         NH4-N
  Runoff Quality Continuity             kg            kg            kg            kg            kg
  **************************    ----------    ----------    ----------    ----------    ----------
  Initial Buildup ..........     41378.656     70582.865      1804.177       168.684      1032.807
  Surface Buildup ..........        19.275        34.271         2.335         0.213         1.362
  Wet Deposition ...........         0.000         0.000         0.000         0.000         0.000
  Sweeping Removal .........         0.000         0.000         0.000         0.000         0.000
  Infiltration Loss ........        84.023       157.502         1.599         0.111         0.761
  BMP Removal ..............         0.000         0.000         0.000         0.000         0.000
  Surface Runoff ...........      3122.074      5752.154        60.620         4.098        28.771
  Remaining Buildup ........     38190.779     64705.500      1744.271       164.686      1004.628
  Continuity Error (%) .....         0.003         0.003         0.001         0.001         0.001
  
  
  **************************        Volume        Volume
  Flow Routing Continuity        hectare-m      10^6 ltr
  **************************     ---------     ---------
  Dry Weather Inflow .......         0.616         6.165
  Wet Weather Inflow .......         3.687        36.869
  Groundwater Inflow .......         0.000         0.000
  RDII Inflow ..............         0.000         0.000
  External Inflow ..........         0.102         1.024
  External Outflow .........         1.831        18.313
  Flooding Loss ............         2.145        21.446
  Evaporation Loss .........         0.000         0.000
  Exfiltration Loss ........         0.000         0.000
  Initial Stored Volume ....         0.076         0.761
  Final Stored Volume ......         0.616         6.163
  Continuity Error (%) .....        -2.462
  
  
  **************************           COD            SS            TN            TP         NH4-N
  Quality Routing Continuity            kg            kg            kg            kg            kg
  **************************    ----------    ----------    ----------    ----------    ----------
  Dry Weather Inflow .......      1541.201      2465.922       147.955        18.494        92.472
  Wet Weather Inflow .......      3121.078      5750.388        60.600         4.097        28.761
  Groundwater Inflow .......         0.000         0.000         0.000         0.000         0.000
  RDII Inflow ..............         0.000         0.000         0.000         0.000         0.000
  External Inflow ..........       183.418       293.469        17.608         2.201        11.005
  External Outflow .........      2209.580      3761.825       149.945        17.825        91.208
  Flooding Loss ............      1947.906      3560.622        49.163         4.196        25.660
  Exfiltration Loss ........         0.000         0.000         0.000         0.000         0.000
  Mass Reacted .............         0.000         0.000         0.000         0.000         0.000
  Initial Stored Mass ......         0.000         0.000         0.000         0.000         0.000
  Final Stored Mass ........       550.779       951.728        23.639         2.500        13.632
  Continuity Error (%) .....         2.836         2.769         1.510         1.093         1.315
  
  
  *************************
  Highest Continuity Errors
  *************************
  Node HS02004842 (14.53%)
  Node JK-storage (-11.10%)
  Node YS02001884 (10.59%)
  Node YSB1171 (2.75%)
  Node HS02004817 (2.73%)
  
  
  ***************************
  Time-Step Critical Elements
  ***************************
  Link WS02006252WS02006251 (65.42%)
  Link WS02006280WS02006229 (11.26%)
  Link WS02006238WS02006235 (7.53%)
  Link YS02006556YS02006558 (2.95%)
  Link YS02001793JiankangQianchi (1.88%)
  
  
  ********************************
  Highest Flow Instability Indexes
  ********************************
  Link WS02006113WS02006111 (46)
  Link YS02163601YS02164001 (43)
  Link YS02163301YS02001633 (42)
  Link YS02001629YS02163301 (41)
  Link YS02001619YS02001622 (40)
  
  
  *************************
  Routing Time Step Summary
  *************************
  Minimum Time Step           :     0.50 sec
  Average Time Step           :     1.28 sec
  Maximum Time Step           :     5.00 sec
  Percent in Steady State     :    -0.00
  Average Iterations per Step :     4.44
  Percent Not Converging      :    19.79
  
  
  ***************************
  Subcatchment Runoff Summary
  ***************************
  
  ------------------------------------------------------------------------------------------------------------------------------
                            Total      Total      Total      Total     Imperv       Perv      Total       Total     Peak  Runoff
                           Precip      Runon       Evap      Infil     Runoff     Runoff     Runoff      Runoff   Runoff   Coeff
  Subcatchment                 mm         mm         mm         mm         mm         mm         mm    10^6 ltr      LPS
  ------------------------------------------------------------------------------------------------------------------------------
  sub0                      12.16       0.00       0.00       0.65      11.27       0.20      11.47        0.01     1.99   0.943
  sub1                      12.16       0.00       0.00       1.12      10.73       0.22      10.95        0.07    14.96   0.900
  sub2                      12.16       0.00       0.00       4.23       7.58       0.27       7.85        0.07    15.08   0.646
  sub3                      12.16       0.00       0.00       4.29       7.54       0.21       7.75        0.17    34.61   0.637
  sub4                      12.16       0.00       0.00       1.19      10.57       0.14      10.71        0.22    42.34   0.881
  sub5                      12.16       0.00       0.00       0.69      11.21       0.16      11.38        0.13    26.18   0.935
  sub7                      12.16       0.00       0.00       0.88      11.01       0.22      11.22        0.04     7.95   0.923
  sub8                      12.16       0.00       0.00       0.89      11.00       0.21      11.20        0.07    14.89   0.921
  sub9                      12.16       0.00       0.00       0.89      10.99       0.21      11.20        0.05    11.18   0.921
  sub10                     12.16       0.00       0.00       0.79      11.10       0.18      11.28        0.12    25.49   0.928
  sub11                     12.16       0.00       0.00       0.78      11.12       0.19      11.31        0.13    27.35   0.930
  sub12                     12.16       0.00       0.00       1.27      10.53       0.31      10.85        0.09    20.52   0.892
  sub14                     12.16       0.00       0.00       0.89      10.99       0.20      11.20        0.11    22.08   0.920
  sub15                     12.16       0.00       0.00       3.28       8.45       0.37       8.82        0.15    32.49   0.725
  sub16                     12.16       0.00       0.00       3.51       8.11       0.50       8.61        0.09    20.36   0.708
  sub17                     12.16       0.00       0.00       3.41       8.23       0.48       8.71        0.07    16.72   0.716
  sub22                     12.16       0.00       0.00       4.80       6.89       0.43       7.32        0.46   102.62   0.602
  sub23                     12.16       0.00       0.00       4.05       7.62       0.45       8.07        0.38    85.35   0.663
  sub60                     12.16       0.00       0.00       1.42       8.82       0.04       8.86        2.69   336.84   0.729
  sub61                     12.16       0.00       0.00       2.01       8.94       0.06       9.00        2.78   399.45   0.740
  sub62                     12.16       0.00       0.00       0.92       9.73       0.05       9.78        3.01   415.79   0.804
  sub63                     12.16       0.00       0.00       3.46       7.82       0.06       7.88        2.39   361.21   0.648
  sub64                     12.16       0.00       0.00       1.78       8.47       0.04       8.51        2.59   320.97   0.699
  sub65                     12.16       0.00       0.00       1.54       8.61       0.04       8.65        2.66   326.54   0.711
  sub66                     12.16       0.00       0.00       3.49       7.26       0.04       7.30        2.24   290.53   0.600
  sub67                     12.16       0.00       0.00       0.91      10.24       0.07      10.31        3.18   494.23   0.848
  sub68                     12.16       0.00       0.00       1.64       9.40       0.06       9.46        2.91   432.52   0.778
  sub69                     12.16       0.00       0.00       1.73       9.72       0.09       9.82        2.29   383.95   0.807
  sub70                     12.16      10.02       0.00       6.98      13.09       0.56      13.65        3.12   394.93   0.615
  sub71                     12.16       0.00       0.00       0.93       9.48       0.05       9.53        2.25   296.34   0.783
  sub72                     12.16       0.00       0.00       0.83       7.62       0.02       7.64        1.56   151.13   0.628
  1                         12.16      13.29       0.00       1.37      14.64       3.94      18.57        4.36   399.24   0.730
  2                         12.16       0.00       0.00       3.02       2.89       1.65       4.55        1.82   245.52   0.374
  
  
  ****************************
  Subcatchment Washoff Summary
  ****************************
  
  ------------------------------------------------------------------------------------------
                                 COD            SS            TN            TP         NH4-N
  Subcatchment                    kg            kg            kg            kg            kg
  ------------------------------------------------------------------------------------------
  sub0                         2.176         4.147         0.037         0.003         0.018
  sub1                         9.268        18.138         0.173         0.012         0.083
  sub2                         5.563        10.570         0.119         0.008         0.054
  sub3                        13.747        25.918         0.288         0.019         0.132
  sub4                        21.530        42.606         0.429         0.026         0.205
  sub5                        21.300        41.103         0.378         0.029         0.183
  sub7                         4.748         9.424         0.090         0.006         0.043
  sub8                         7.142        14.500         0.143         0.008         0.069
  sub9                         6.100        12.212         0.118         0.007         0.057
  sub10                       17.532        34.266         0.321         0.023         0.155
  sub11                       17.086        33.770         0.320         0.022         0.154
  sub12                       14.392        27.890         0.260         0.019         0.125
  sub14                       13.021        25.823         0.247         0.016         0.119
  sub15                       16.182        30.744         0.313         0.023         0.146
  sub16                       10.318        19.555         0.197         0.015         0.092
  sub17                        9.471        17.789         0.175         0.014         0.082
  sub22                       48.821        90.813         0.932         0.070         0.434
  sub23                       29.138        56.181         0.627         0.041         0.287
  sub60                      203.703       376.194         4.083         0.248         1.956
  sub61                      251.300       461.579         4.699         0.320         2.261
  sub62                      262.762       491.326         5.157         0.324         2.474
  sub63                      185.047       334.594         3.739         0.261         1.731
  sub64                      253.867       452.095         4.687         0.339         2.235
  sub65                      260.106       465.192         4.834         0.344         2.309
  sub66                      146.558       263.078         3.037         0.197         1.417
  sub67                      388.205       718.566         6.963         0.510         3.363
  sub68                      276.714       513.393         5.318         0.356         2.539
  sub69                      247.676       464.012         4.658         0.325         2.225
  sub70                      413.256       778.342         8.287         0.572         3.877
  sub71                      173.740       327.842         3.597         0.206         1.720
  sub72                      136.329       239.316         2.558         0.174         1.230
  1                          280.724       531.718         5.751         0.398         2.660
  2                           35.485        61.812         1.030         0.062         0.437
  ------------------------------------------------------------------------------------------
  System                    3783.006      6994.507        73.566         4.996        34.873
  
  
  ******************
  Node Depth Summary
  ******************
  
  ---------------------------------------------------------------------------------
                                 Average  Maximum  Maximum  Time of Max    Reported
                                   Depth    Depth      HGL   Occurrence   Max Depth
  Node                 Type       Meters   Meters   Meters  days hr:min      Meters
  ---------------------------------------------------------------------------------
  WS02001211           JUNCTION     0.77     0.82     5.65     0  03:14        0.82
  WS02001212           JUNCTION     0.48     0.54     5.60     0  03:13        0.54
  WS02001213           JUNCTION     0.71     0.80     5.56     0  03:12        0.80
  WS02003069           JUNCTION     0.50     0.65     5.23     0  03:12        0.65
  WS02003072           JUNCTION     0.57     0.70     5.07     0  03:12        0.70
  WS02003073           JUNCTION     0.34     0.44     4.50     0  03:13        0.44
  WS02003060           JUNCTION     0.45     0.57     5.50     0  03:11        0.57
  WS02003066           JUNCTION     0.24     0.34     5.89     0  03:10        0.34
  WS02003059           JUNCTION     0.76     0.86     5.54     0  03:12        0.86
  WS02003067           JUNCTION     0.58     0.76     6.08     0  03:10        0.76
  WS02004401           JUNCTION     0.69     1.03     7.03     0  03:08        1.03
  WS02004402           JUNCTION     0.72     1.04     7.00     0  03:08        1.04
  WS02004403           JUNCTION     0.74     1.04     6.97     0  03:08        1.04
  WS02004404           JUNCTION     0.81     1.10     6.95     0  03:08        1.10
  WS02004406           JUNCTION     0.82     1.06     6.89     0  03:08        1.06
  WS02004409           JUNCTION     0.50     0.79     6.56     0  03:09        0.79
  WS02004410           JUNCTION     0.52     0.80     6.52     0  03:09        0.80
  WS02004411           JUNCTION     0.54     0.80     6.48     0  03:10        0.80
  WS02004412           JUNCTION     0.55     0.79     6.43     0  03:10        0.79
  WS02004413           JUNCTION     0.71     0.94     6.41     0  03:10        0.94
  WS02004405           JUNCTION     0.81     1.08     6.93     0  03:08        1.08
  WS02006109           JUNCTION     0.77     1.15     7.77     0  03:02        1.15
  WS02006110           JUNCTION     0.76     1.03     7.62     0  03:07        1.03
  WS02006111           JUNCTION     0.23     0.46     7.16     0  03:08        0.46
  WS02006112           JUNCTION     0.86     1.26     7.15     0  03:08        1.26
  WS02006113           JUNCTION     0.34     0.53     7.42     0  03:01        0.52
  WS02006115           JUNCTION     0.58     0.96     7.10     0  03:08        0.96
  WS02006116           JUNCTION     0.67     1.03     7.07     0  03:08        1.03
  WS02006230           JUNCTION     0.76     1.30     8.05     0  03:08        1.30
  WS02006231           JUNCTION     0.51     1.00     8.13     0  03:10        1.00
  WS02006232           JUNCTION     0.64     1.16     8.20     0  03:10        1.16
  WS02006234           JUNCTION     0.56     1.14     8.29     0  03:10        1.13
  WS02006235           JUNCTION     0.60     1.19     8.36     0  03:10        1.19
  WS02006238           JUNCTION     0.62     1.22     8.36     0  03:10        1.22
  WS02006240           JUNCTION     0.51     1.12     8.42     0  03:11        1.12
  WS02006242           JUNCTION     0.55     1.18     8.45     0  03:11        1.18
  WS02006243           JUNCTION     0.42     1.06     8.48     0  03:11        1.06
  WS02006245           JUNCTION     0.40     1.03     8.51     0  03:11        1.03
  WS02006247           JUNCTION     0.40     1.03     8.53     0  03:11        1.03
  WS02006248           JUNCTION     0.34     0.97     8.56     0  03:11        0.97
  WS02006249           JUNCTION     0.36     0.98     8.57     0  03:11        0.97
  WS02006239           JUNCTION     0.57     1.18     8.39     0  03:10        1.18
  WS02006251           JUNCTION     0.33     0.94     8.61     0  03:11        0.94
  WS02006252           JUNCTION     0.21     0.42     8.66     0  03:11        0.42
  WS02006253           JUNCTION     0.36     0.97     8.61     0  03:11        0.97
  WS02006256           JUNCTION     1.73     2.35     9.28     0  00:18        2.35
  WS02004138           JUNCTION     0.19     0.20     7.45     0  00:00        0.19
  WS02004139           JUNCTION     0.72     0.76     5.67     0  03:14        0.76
  WS02004407           JUNCTION     0.23     0.35     6.66     0  03:09        0.35
  WS02006228           JUNCTION     0.78     1.24     7.89     0  03:07        1.24
  WS02006229           JUNCTION     0.76     1.27     7.97     0  03:07        1.27
  WS02006280           JUNCTION     0.07     0.20     8.47     0  03:02        0.20
  WS02006284           JUNCTION     0.38     0.56     8.96     0  03:02        0.56
  WS02006287           JUNCTION     0.11     0.30     9.25     0  03:01        0.30
  WSF200               JUNCTION     0.22     0.37     5.60     0  03:10        0.37
  HS02004901           JUNCTION     0.13     0.29    10.12     0  03:01        0.29
  HS02004881           JUNCTION     0.01     0.04     9.07     0  03:01        0.04
  HS02004876           JUNCTION     0.05     0.12     9.15     0  03:01        0.12
  HS02004870           JUNCTION     0.02     0.07     9.35     0  03:01        0.07
  HS02004862           JUNCTION     0.02     0.08     9.46     0  03:01        0.08
  HS02004856           JUNCTION     0.08     0.13     9.55     0  03:01        0.13
  HS02004852           JUNCTION     0.01     0.05     9.56     0  03:01        0.05
  HS02004848           JUNCTION     0.01     0.05     9.65     0  03:01        0.05
  HS02004842           JUNCTION     0.34     0.38     9.65     0  03:01        0.38
  HS02004837           JUNCTION     0.03     0.07     9.65     0  03:01        0.07
  HS02004830           JUNCTION     0.04     0.08     9.55     0  03:01        0.08
  HS02004824           JUNCTION     0.03     0.06     9.47     0  03:01        0.06
  HS02004817           JUNCTION     0.45     0.61     9.45     0  03:01        0.61
  HS02004807           JUNCTION     0.13     0.28     9.45     0  03:01        0.28
  HS02004802           JUNCTION     0.17     0.31     9.44     0  03:01        0.31
  HS02004799           JUNCTION     0.13     0.35     9.56     0  03:01        0.35
  HS02004792           JUNCTION     0.04     0.15     9.67     0  03:01        0.15
  HS02004788           JUNCTION     0.03     0.11    10.01     0  03:01        0.11
  HS02004785           JUNCTION     0.05     0.18    10.09     0  03:01        0.18
  HS02004777           JUNCTION     0.15     0.31    10.11     0  03:01        0.31
  HS02004770           JUNCTION     0.12     0.29    10.12     0  03:01        0.29
  HS02004480           JUNCTION     0.09     0.28     9.52     0  03:01        0.28
  HS02004479           JUNCTION     0.13     0.32     9.52     0  03:01        0.32
  HS02004478           JUNCTION     0.07     0.20     9.42     0  03:01        0.20
  YS02001745           JUNCTION     0.74     0.93     8.44     0  03:01        0.92
  YS02001748           JUNCTION     1.13     1.40     8.48     0  02:28        1.36
  YS02001751           JUNCTION     1.31     1.94     8.82     0  02:18        1.56
  YS02001754           JUNCTION     1.57     1.83     8.44     0  02:59        1.82
  YS02001762           JUNCTION     1.76     2.04     8.44     0  02:59        2.02
  YS02001765           JUNCTION     1.72     1.98     8.43     0  02:50        1.97
  YS02001767           JUNCTION     1.68     1.94     8.43     0  02:59        1.93
  YS02001770           JUNCTION     1.68     1.92     8.42     0  02:59        1.92
  YS02001774           JUNCTION     1.74     1.98     8.40     0  02:18        1.97
  YS02001779           JUNCTION     1.49     1.68     8.37     0  02:18        1.68
  YS02001882           JUNCTION     0.59     1.62     8.34     0  03:00        1.61
  YS02001884           JUNCTION     0.69     1.72     8.34     0  03:00        1.71
  YS02001759           JUNCTION     1.80     2.08     8.44     0  02:59        2.06
  YS02001887           JUNCTION     0.76     1.80     8.33     0  02:59        1.79
  YS02001890           JUNCTION     0.79     1.81     8.32     0  02:55        1.81
  YS02001898           JUNCTION     0.56     1.56     8.29     0  02:55        1.55
  YS02001901           JUNCTION     0.68     1.67     8.28     0  03:00        1.67
  YS02001904           JUNCTION     0.66     1.64     8.27     0  02:53        1.63
  YS02001907           JUNCTION     0.99     1.96     8.25     0  02:45        1.96
  YS02001910           JUNCTION     0.78     1.77     8.28     0  02:45        1.76
  YS02001915           JUNCTION     0.58     1.59     8.30     0  02:46        1.57
  YS02001918           JUNCTION     0.31     1.25     8.32     0  02:46        1.24
  YS02001619           JUNCTION     1.27     1.61     8.54     0  02:27        1.50
  YS02001629           JUNCTION     1.63     1.85     8.40     0  02:28        1.84
  YS02001641           JUNCTION     1.72     1.93     8.37     0  03:31        1.93
  YS02001644           JUNCTION     1.73     1.92     8.35     0  02:35        1.92
  YS02001652           JUNCTION     1.58     2.09     8.69     0  02:20        1.91
  YS02001655           JUNCTION     1.34     2.20     9.05     0  02:20        1.71
  YS02001920           JUNCTION     0.41     1.33     8.33     0  02:46        1.31
  YS02001923           JUNCTION     0.24     1.08     8.34     0  02:46        1.07
  YS02001926           JUNCTION     0.30     0.91     8.35     0  02:46        0.89
  YS02001929           JUNCTION     0.17     0.68     8.38     0  02:45        0.68
  YS02001658           JUNCTION     1.07     1.96     9.10     0  04:00        1.49
  YS02001661           JUNCTION     0.84     1.95     9.36     0  04:00        1.62
  YS02001664           JUNCTION     0.38     0.57     8.50     0  04:16        0.56
  YS02001622           JUNCTION     1.30     1.62     8.52     0  02:28        1.51
  YS02001633           JUNCTION     1.72     1.95     8.40     0  03:00        1.93
  YS02001649           JUNCTION     1.77     2.05     8.44     0  02:41        2.05
  YS02001757           JUNCTION     1.90     2.18     8.44     0  03:39        2.16
  YS02001895           JUNCTION     0.55     1.56     8.31     0  03:00        1.55
  YS02001625           JUNCTION     1.58     1.78     8.38     0  02:27        1.78
  YS02163301           JUNCTION     1.66     1.88     8.40     0  02:51        1.88
  YS02163601           JUNCTION     1.77     1.99     8.38     0  02:54        1.98
  YS02164001           JUNCTION     1.70     1.92     8.38     0  02:57        1.92
  YS02001647           JUNCTION     1.56     1.81     8.42     0  03:39        1.79
  YSB1154              JUNCTION     0.27     0.47     9.52     0  03:01        0.47
  YSB6556              JUNCTION     0.16     0.35     9.52     0  03:01        0.35
  YSB1174              JUNCTION     0.22     0.41     9.52     0  03:01        0.41
  YSB1171              JUNCTION     0.42     0.62     9.52     0  03:01        0.62
  YS02006553           JUNCTION     0.99     1.96     8.25     0  03:02        1.96
  YS02006561           JUNCTION     0.34     1.08     7.74     0  02:48        1.07
  YS02006556           JUNCTION     0.95     1.92     8.23     0  02:55        1.91
  YS02006558           JUNCTION     0.99     1.96     8.23     0  02:59        1.95
  YS02001783           JUNCTION     0.56     1.47     7.61     0  02:49        1.46
  YS02001784           JUNCTION     0.58     1.57     7.64     0  02:34        1.40
  YS02001786           JUNCTION     0.51     1.76     7.79     0  02:34        1.25
  YS02001788           JUNCTION     0.44     1.51     7.49     0  02:34        1.12
  YS02001790           JUNCTION     0.55     1.96     7.60     0  04:31        1.28
  YS02001791           JUNCTION     0.50     2.27     7.74     0  04:30        1.44
  YS02001793           JUNCTION     0.66     2.88     7.71     0  04:28        1.80
  WSC                  OUTFALL      0.34     0.44     1.11     0  03:13        0.44
  JK-storage           STORAGE      2.73     5.80     6.60     0  02:01        5.80
  CC-storage           STORAGE      1.16     1.43     8.43     0  03:04        1.43
  XR-storage           STORAGE      6.43     7.72     5.72     0  03:01        7.72
  
  
  *******************
  Node Inflow Summary
  *******************
  
  -------------------------------------------------------------------------------------------------
                                  Maximum  Maximum                  Lateral       Total        Flow
                                  Lateral    Total  Time of Max      Inflow      Inflow     Balance
                                   Inflow   Inflow   Occurrence      Volume      Volume       Error
  Node                 Type           LPS      LPS  days hr:min    10^6 ltr    10^6 ltr     Percent
  -------------------------------------------------------------------------------------------------
  WS02001211           JUNCTION      7.35   389.39     0  04:29       0.207        10.3       0.386
  WS02001212           JUNCTION      0.00   391.34     0  04:29           0        10.2       0.230
  WS02001213           JUNCTION      0.00   393.29     0  04:30           0        10.2       0.265
  WS02003069           JUNCTION      0.32  1125.53     0  03:12     0.00902        18.4       0.155
  WS02003072           JUNCTION      0.00  1125.48     0  03:12           0        18.3       0.195
  WS02003073           JUNCTION      1.82  1127.32     0  03:13      0.0514        18.4       0.222
  WS02003060           JUNCTION     16.53  1125.16     0  03:11       0.466        18.4       0.147
  WS02003066           JUNCTION      0.00   723.13     0  03:10           0         7.8       0.038
  WS02003059           JUNCTION      0.00   396.61     0  04:30           0        10.2       0.378
  WS02003067           JUNCTION      0.00   723.08     0  03:10           0         7.8       0.085
  WS02004401           JUNCTION      0.00   723.31     0  03:08           0        7.96       0.173
  WS02004402           JUNCTION      0.00   723.36     0  03:08           0        7.94       0.170
  WS02004403           JUNCTION      0.00   723.40     0  03:08           0        7.93       0.162
  WS02004404           JUNCTION      0.16   723.60     0  03:09     0.00457        7.92       0.131
  WS02004406           JUNCTION      0.00   723.66     0  03:09           0         7.9       0.318
  WS02004409           JUNCTION      0.00   723.65     0  03:09           0        7.87       0.106
  WS02004410           JUNCTION      0.00   723.43     0  03:09           0        7.86       0.135
  WS02004411           JUNCTION      0.00   723.27     0  03:09           0        7.85       0.149
  WS02004412           JUNCTION      0.00   723.15     0  03:10           0        7.84       0.174
  WS02004413           JUNCTION      0.00   723.08     0  03:10           0        7.83       0.279
  WS02004405           JUNCTION      0.04   723.65     0  03:09     0.00107        7.91       0.193
  WS02006109           JUNCTION      1.23   716.67     0  03:07      0.0347        7.95       0.102
  WS02006110           JUNCTION      0.00   716.67     0  03:07           0        7.94       0.139
  WS02006111           JUNCTION      0.00   726.61     0  03:01           0        7.93       0.016
  WS02006112           JUNCTION     16.72   723.62     0  03:08      0.0747           8       0.269
  WS02006113           JUNCTION      0.00   716.72     0  03:07           0        7.93       0.041
  WS02006115           JUNCTION      0.00   723.61     0  03:08           0        7.98       0.138
  WS02006116           JUNCTION      0.00   723.24     0  03:08           0        7.97       0.115
  WS02006230           JUNCTION     10.28   453.65     0  03:14        0.29        5.77       0.132
  WS02006231           JUNCTION      0.00   443.35     0  03:14           0        5.48      -0.029
  WS02006232           JUNCTION      0.00   443.32     0  03:14           0        5.48       0.111
  WS02006234           JUNCTION      0.00   443.27     0  03:14           0        5.48      -0.023
  WS02006235           JUNCTION      0.00   443.21     0  03:14           0        5.59       0.078
  WS02006238           JUNCTION      0.00   250.05     0  03:13           0        2.28       0.006
  WS02006240           JUNCTION      0.00   250.02     0  03:13           0        2.18       0.071
  WS02006242           JUNCTION      0.00   250.01     0  03:13           0        2.14       0.061
  WS02006243           JUNCTION      0.00   249.99     0  03:13           0        2.11       0.119
  WS02006245           JUNCTION      0.00   249.98     0  03:13           0        2.11       0.385
  WS02006247           JUNCTION      0.00   249.95     0  03:13           0        2.11       0.031
  WS02006248           JUNCTION      0.00   249.91     0  03:13           0         2.1      -0.075
  WS02006249           JUNCTION      0.00   249.89     0  03:13           0         2.1       0.161
  WS02006239           JUNCTION      0.00   250.04     0  03:13           0        2.23      -0.193
  WS02006251           JUNCTION      0.08   248.96     0  03:12     0.00217        2.12      -0.029
  WS02006252           JUNCTION      0.00   200.00     0  03:10           0        1.68       0.009
  WS02006253           JUNCTION      1.99    86.07     0  03:01     0.00928       0.436      -0.060
  WS02006256           JUNCTION      0.00   983.00     0  02:10           0        9.41       0.013
  WS02004138           JUNCTION      0.00   380.00     0  00:00           0        10.1       0.067
  WS02004139           JUNCTION      0.32   394.45     0  00:00     0.00905        10.1       0.444
  WS02004407           JUNCTION      0.00   723.69     0  03:09           0        7.87       0.043
  WS02006228           JUNCTION      0.00   715.43     0  03:07           0        7.92       0.074
  WS02006229           JUNCTION      0.00   715.58     0  03:06           0        7.93       0.114
  WS02006280           JUNCTION      0.00   413.61     0  03:02           0        2.17       0.003
  WS02006284           JUNCTION      0.10   413.56     0  03:02      0.0027        2.17       0.040
  WS02006287           JUNCTION      0.00   413.21     0  03:01           0        2.17       0.034
  WSF200               JUNCTION      0.00   723.16     0  03:10           0        7.79       0.031
  HS02004901           JUNCTION     20.36    20.36     0  03:01      0.0901      0.0904       1.991
  HS02004881           JUNCTION      7.95    84.19     0  03:01      0.0378        0.41       0.103
  HS02004876           JUNCTION     14.96    76.75     0  03:01      0.0728       0.373       0.148
  HS02004870           JUNCTION     14.89    62.15     0  03:01      0.0716         0.3       0.037
  HS02004862           JUNCTION     15.28    47.68     0  03:01      0.0788       0.229       0.077
  HS02004856           JUNCTION     11.18    32.72     0  03:01      0.0539       0.152       0.961
  HS02004852           JUNCTION      0.00    21.94     0  03:01           0      0.0979       0.059
  HS02004848           JUNCTION     34.61    34.61     0  03:01       0.174       0.174       0.029
  HS02004842           JUNCTION      0.00    12.41     0  03:01           0      0.0895      17.001
  HS02004837           JUNCTION     31.84    43.95     0  03:01       0.303        0.38       0.214
  HS02004830           JUNCTION      0.15    43.85     0  03:01     0.00423        0.37       0.334
  HS02004824           JUNCTION     42.39    85.90     0  03:01       0.225       0.594       0.091
  HS02004817           JUNCTION      0.60    86.28     0  03:01      0.0169        0.61       2.809
  HS02004807           JUNCTION     27.35   112.31     0  03:01       0.131       0.725       0.605
  HS02004802           JUNCTION      0.00   111.37     0  03:01           0       0.723       0.547
  HS02004799           JUNCTION     22.08   258.92     0  03:01       0.107        1.24       0.223
  HS02004792           JUNCTION    102.90   238.01     0  03:01        0.47        1.14       0.036
  HS02004788           JUNCTION     34.16   135.94     0  03:01       0.199       0.669       0.058
  HS02004785           JUNCTION      0.15   103.52     0  03:01     0.00423       0.471       0.106
  HS02004777           JUNCTION      0.03   104.16     0  03:01    0.000846       0.472       1.115
  HS02004770           JUNCTION     85.35   105.11     0  03:01       0.385       0.473       0.659
  HS02004480           JUNCTION      0.00   302.44     0  03:01           0        1.46       0.075
  HS02004479           JUNCTION      0.00    44.91     0  03:02           0       0.232       0.317
  HS02004478           JUNCTION      0.00   413.08     0  03:01           0        2.17       0.013
  YS02001745           JUNCTION    336.84   377.54     0  02:26        2.69         2.7       0.424
  YS02001748           JUNCTION      0.04   550.42     0  02:27     0.00127        2.69       0.819
  YS02001751           JUNCTION      0.01   339.71     0  03:01     0.00031        2.65       0.906
  YS02001754           JUNCTION      0.26   340.03     0  03:01     0.00733        2.64       0.955
  YS02001762           JUNCTION      0.00   291.56     0  02:38           0        1.86       1.147
  YS02001765           JUNCTION      0.00   290.49     0  02:38           0        1.86       1.325
  YS02001767           JUNCTION      0.54   290.25     0  02:38      0.0151        1.89       1.919
  YS02001770           JUNCTION    415.94   609.28     0  03:05        3.01        3.47       0.913
  YS02001774           JUNCTION      0.00   609.35     0  03:05           0        2.02       1.251
  YS02001779           JUNCTION      0.01   609.39     0  03:05    0.000141        1.99       0.786
  YS02001882           JUNCTION      0.00    34.26     0  02:35           0      0.0221      11.712
  YS02001884           JUNCTION      0.00    67.44     0  02:35           0      0.0593      11.840
  YS02001759           JUNCTION    399.49   572.09     0  02:38        2.78        4.15       0.558
  YS02001887           JUNCTION    494.68   495.09     0  03:01        3.19        3.22       0.270
  YS02001890           JUNCTION      0.00   495.37     0  03:01           0        3.18       0.297
  YS02001898           JUNCTION      0.00   494.53     0  03:00           0        3.16       0.108
  YS02001901           JUNCTION      0.00   494.51     0  03:00           0        3.16       0.219
  YS02001904           JUNCTION      0.00   494.79     0  03:01           0        3.16       0.206
  YS02001907           JUNCTION      0.00   940.61     0  03:01           0        7.02       0.350
  YS02001910           JUNCTION      0.00   449.56     0  03:00           0        3.87       0.317
  YS02001915           JUNCTION    296.36   449.34     0  03:00        2.25         3.9       0.156
  YS02001918           JUNCTION      0.00   208.30     0  03:30           0        1.65       0.111
  YS02001619           JUNCTION    290.53   290.53     0  03:01        2.24        2.24       0.552
  YS02001629           JUNCTION      0.00   216.63     0  02:17           0        1.69       1.738
  YS02001641           JUNCTION      0.00   397.68     0  02:35           0        4.25       0.504
  YS02001644           JUNCTION    321.01  1396.85     0  03:01        2.59          11       0.249
  YS02001652           JUNCTION      0.00   372.10     0  03:01           0        2.34       1.021
  YS02001655           JUNCTION      0.15   386.98     0  02:17     0.00434        2.37       1.000
  YS02001920           JUNCTION      2.87   203.92     0  02:46      0.0809        1.64       0.182
  YS02001923           JUNCTION      0.04   224.48     0  02:46     0.00106        1.56       0.051
  YS02001926           JUNCTION      0.05   172.31     0  02:46     0.00147        1.56       0.210
  YS02001929           JUNCTION    151.13   151.13     0  03:01        1.56        1.56       0.037
  YS02001658           JUNCTION      0.00   599.10     0  02:23           0        2.41       0.892
  YS02001661           JUNCTION      0.00   604.27     0  02:45           0        2.76      -0.204
  YS02001664           JUNCTION    361.21   361.21     0  03:01        2.38        2.74       0.243
  YS02001622           JUNCTION      0.00   290.92     0  03:01           0        2.22       1.451
  YS02001633           JUNCTION    326.74   398.05     0  02:35        2.66        4.31       0.750
  YS02001649           JUNCTION      0.00   820.87     0  02:35           0         6.2       0.596
  YS02001757           JUNCTION      0.00  1577.13     0  02:35           0        8.37       1.117
  YS02001895           JUNCTION      0.00   494.74     0  03:01           0        3.17       0.164
  YS02001625           JUNCTION      0.00   290.71     0  03:01           0        2.19       1.808
  YS02163301           JUNCTION      0.00   201.43     0  02:24           0        1.67       1.466
  YS02163601           JUNCTION      0.11   398.15     0  02:35      0.0031        4.27       0.706
  YS02164001           JUNCTION      0.00   397.91     0  02:35           0        4.25       0.472
  YS02001647           JUNCTION      0.00   710.05     0  03:04           0        5.52       0.515
  YSB1154              JUNCTION     26.18    26.18     0  03:01       0.129        0.13       1.131
  YSB6556              JUNCTION      0.00    25.83     0  03:01           0        0.13       0.969
  YSB1174              JUNCTION     20.52    20.52     0  03:01      0.0948      0.0952       1.369
  YSB1171              JUNCTION      0.00    45.30     0  03:01           0       0.231       2.823
  YS02006553           JUNCTION      0.00   704.90     0  03:31           0        6.56       0.237
  YS02006561           JUNCTION      0.00   982.27     0  03:01           0        9.44       0.009
  YS02006556           JUNCTION      0.00   704.76     0  03:31           0        6.57       0.178
  YS02006558           JUNCTION    433.40   983.30     0  03:01        2.93        9.47       0.054
  YS02001783           JUNCTION      0.00   982.63     0  03:00           0        9.44       0.024
  YS02001784           JUNCTION      1.06   983.40     0  03:00      0.0299        9.47       0.038
  YS02001786           JUNCTION      0.06   983.61     0  03:00     0.00159        9.47       0.038
  YS02001788           JUNCTION      0.07   983.50     0  03:00       0.002        9.46       0.024
  YS02001790           JUNCTION      0.15   983.71     0  03:00     0.00437        9.47       0.009
  YS02001791           JUNCTION      0.00   983.79     0  03:00           0        9.47       0.015
  YS02001793           JUNCTION      0.00   984.04     0  03:00           0        9.47      -0.017
  WSC                  OUTFALL       0.00  1127.30     0  03:13           0        18.3       0.000
  JK-storage           STORAGE       0.00   983.99     0  02:59           0        9.62      -9.990
  CC-storage           STORAGE       0.00  1577.22     0  02:35           0        5.66       1.158
  XR-storage           STORAGE     844.76   844.76     0  03:01        11.8        12.4      -0.003
  
  
  **********************
  Node Surcharge Summary
  **********************
  
  Surcharging occurs when water rises above the top of the highest conduit.
  ---------------------------------------------------------------------
                                               Max. Height   Min. Depth
                                   Hours       Above Crown    Below Rim
  Node                 Type      Surcharged         Meters       Meters
  ---------------------------------------------------------------------
  WS02004401           JUNCTION        0.22          0.033        1.627
  WS02004402           JUNCTION        0.28          0.043        1.697
  WS02004403           JUNCTION        0.29          0.040        1.990
  WS02004404           JUNCTION        0.54          0.098        2.682
  WS02004406           JUNCTION        0.45          0.062        2.388
  WS02004405           JUNCTION        0.49          0.083        2.717
  WS02006109           JUNCTION        2.78          0.328        1.492
  WS02006110           JUNCTION        1.04          0.124        1.726
  WS02006112           JUNCTION        1.30          0.264        1.416
  WS02006230           JUNCTION        0.59          0.222        1.348
  WS02006231           JUNCTION        0.74          0.293        1.237
  WS02006232           JUNCTION        2.40          0.463        1.017
  WS02006234           JUNCTION        1.37          0.416        0.824
  WS02006235           JUNCTION        1.82          0.481        0.809
  WS02006238           JUNCTION        1.96          0.497        0.933
  WS02006240           JUNCTION        0.96          0.414        0.976
  WS02006242           JUNCTION        1.02          0.451        0.369
  WS02006243           JUNCTION        0.53          0.354        0.416
  WS02006245           JUNCTION        0.48          0.319        0.531
  WS02006247           JUNCTION        0.47          0.324        0.436
  WS02006248           JUNCTION        0.35          0.250        0.130
  WS02006249           JUNCTION        0.40          0.276        0.114
  WS02006239           JUNCTION        1.30          0.441        0.849
  WS02006252           JUNCTION        0.05          0.019        1.081
  WS02006256           JUNCTION        6.96          2.050        0.000
  WS02006228           JUNCTION        2.67          0.412        1.788
  YS02001748           JUNCTION        5.31          0.324        0.866
  YS02001751           JUNCTION        5.48          0.943        0.257
  YS02001754           JUNCTION        5.69          0.782        0.368
  YS02001762           JUNCTION        5.87          1.036        0.114
  YS02001765           JUNCTION        5.84          0.984        0.116
  YS02001767           JUNCTION        5.81          0.942        0.088
  YS02001770           JUNCTION        5.80          0.894        0.026
  YS02001774           JUNCTION        5.86          0.981        0.069
  YS02001779           JUNCTION        5.67          0.680        0.000
  YS02001882           JUNCTION        0.90          0.620        0.210
  YS02001884           JUNCTION        0.93          0.659        0.211
  YS02001759           JUNCTION        5.89          1.075        0.135
  YS02001887           JUNCTION        1.00          0.747        0.203
  YS02001890           JUNCTION        1.02          0.760        0.000
  YS02001898           JUNCTION        0.87          0.527        0.213
  YS02001901           JUNCTION        0.96          0.672        0.198
  YS02001904           JUNCTION        0.94          0.635        0.215
  YS02001907           JUNCTION        1.76          0.950        0.000
  YS02001910           JUNCTION        1.07          0.774        0.326
  YS02001915           JUNCTION        0.89          0.586        0.414
  YS02001918           JUNCTION        0.71          0.252        0.558
  YS02001619           JUNCTION        5.47          0.610        0.000
  YS02001629           JUNCTION        5.48          0.470        0.000
  YS02001641           JUNCTION        5.85          0.934        0.166
  YS02001644           JUNCTION        5.85          0.920        0.000
  YS02001652           JUNCTION        5.73          1.064        0.066
  YS02001655           JUNCTION        5.50          1.200        0.000
  YS02001920           JUNCTION        0.74          0.326        0.814
  YS02001658           JUNCTION        5.34          0.957        0.343
  YS02001661           JUNCTION        0.18          0.882        0.508
  YS02001622           JUNCTION        5.50          0.620        0.000
  YS02001633           JUNCTION        5.83          0.925        0.135
  YS02001649           JUNCTION        5.87          1.050        0.000
  YS02001757           JUNCTION        5.98          1.177        0.033
  YS02001895           JUNCTION        0.88          0.564        0.186
  YS02001625           JUNCTION        5.76          0.780        0.000
  YS02163301           JUNCTION        5.81          0.881        0.149
  YS02163601           JUNCTION        5.87          0.986        0.094
  YS02164001           JUNCTION        5.84          0.918        0.182
  YS02001647           JUNCTION        5.75          0.806        0.094
  YS02006553           JUNCTION        1.84          0.965        0.225
  YS02006561           JUNCTION        0.77          0.277        0.873
  YS02006556           JUNCTION        1.30          0.880        0.470
  YS02006558           JUNCTION        1.26          0.862        0.538
  YS02001783           JUNCTION        1.05          0.669        0.931
  YS02001784           JUNCTION        1.03          0.770        0.720
  YS02001786           JUNCTION        0.98          0.956        0.474
  YS02001788           JUNCTION        0.93          0.711        0.769
  YS02001790           JUNCTION        1.96          1.157        0.000
  YS02001791           JUNCTION        2.07          1.475        0.445
  YS02001793           JUNCTION        2.37          1.881        0.719
  
  
  *********************
  Node Flooding Summary
  *********************
  
  Flooding refers to all water that overflows a node, whether it ponds or not.
  --------------------------------------------------------------------------
                                                             Total   Maximum
                                 Maximum   Time of Max       Flood    Ponded
                        Hours       Rate    Occurrence      Volume     Depth
  Node                 Flooded       LPS   days hr:min    10^6 ltr    Meters
  --------------------------------------------------------------------------
  WS02006256              3.66    792.61      0  03:10       6.018     0.000
  YS02001779              3.01    609.38      0  03:05       1.970     0.000
  YS02001890              0.01      0.41      0  03:00       0.000     0.000
  YS02001907              0.58    391.44      0  03:01       0.443     0.000
  YS02001619              0.01     20.03      0  02:27       0.000     0.000
  YS02001629              0.01     35.46      0  02:28       0.000     0.000
  YS02001644              5.06   1396.53      0  03:01       9.687     0.000
  YS02001655              0.01    205.36      0  02:20       0.000     0.000
  YS02001622              0.01     10.70      0  02:28       0.000     0.000
  YS02001649              0.04     37.27      0  04:00       0.001     0.000
  YS02001625              1.17    236.49      0  03:01       0.464     0.000
  YS02001790              0.01    194.36      0  04:31       0.000     0.000
  JK-storage              0.99    819.21      0  02:40       1.162     0.000
  XR-storage              2.95    458.09      0  03:01       1.704     0.000
  
  
  **********************
  Storage Volume Summary
  **********************
  
  --------------------------------------------------------------------------------------------------
                         Average     Avg  Evap Exfil       Maximum     Max    Time of Max    Maximum
                          Volume    Pcnt  Pcnt  Pcnt        Volume    Pcnt     Occurrence    Outflow
  Storage Unit           1000 m3    Full  Loss  Loss       1000 m3    Full    days hr:min        LPS
  --------------------------------------------------------------------------------------------------
  JK-storage               0.137      47     0     0         0.291     100       0  02:01     983.00
  CC-storage               3.230      21     0     0         3.981      25       0  03:04     200.00
  XR-storage               0.772      83     0     0         0.926     100       0  03:01     380.00
  
  
  ***********************
  Outfall Loading Summary
  ***********************
  
  ---------------------------------------------------------------------------------------------------------------------------------
                         Flow       Avg       Max       Total         Total         Total         Total         Total         Total
                         Freq      Flow      Flow      Volume           COD            SS            TN            TP         NH4-N
  Outfall Node           Pcnt       LPS       LPS    10^6 ltr            kg            kg            kg            kg            kg
  ---------------------------------------------------------------------------------------------------------------------------------
  WSC                  100.00    743.55   1127.30      18.313      2209.783      3762.161       149.962        17.827        91.218
  ---------------------------------------------------------------------------------------------------------------------------------
  System               100.00    743.55   1127.30      18.313      2209.783      3762.161       149.962        17.827        91.218
  
  
  ********************
  Link Flow Summary
  ********************
  
  -----------------------------------------------------------------------------
                                 Maximum  Time of Max   Maximum    Max/    Max/
                                  |Flow|   Occurrence   |Veloc|    Full    Full
  Link                 Type          LPS  days hr:min     m/sec    Flow   Depth
  -----------------------------------------------------------------------------
  WS02003066WSF200     CONDUIT    723.16     0  03:10      2.88    0.12    0.27
  WS02006287WS02006284 CONDUIT    413.46     0  03:02      2.04    0.19    0.30
  WS02006284WS02006280 CONDUIT    413.61     0  03:02      2.28    0.17    0.28
  WS02006280WS02006229 CONDUIT    413.65     0  03:02      3.68    0.09    0.20
  WS02006229WS02006228 CONDUIT    715.43     0  03:07      1.42    2.37    1.00
  WS02006256WS02006235 CONDUIT    261.47     0  04:52      3.70    2.77    1.00
  WS02006253WS02006251 CONDUIT     80.24     0  02:59      0.60    0.24    1.00
  WS02006252WS02006251 CONDUIT    203.69     0  03:13      1.97    0.75    0.89
  WS02006251WS02006249 CONDUIT    249.89     0  03:13      0.91    0.72    1.00
  WS02006249WS02006248 CONDUIT    249.91     0  03:13      1.00    1.37    1.00
  WS02006248WS02006247 CONDUIT    249.95     0  03:13      0.97    0.54    1.00
  WS02006247WS02006245 CONDUIT    249.98     0  03:13      0.94    1.98    1.00
  WS02006245WS02006243 CONDUIT    249.99     0  03:13      1.05    0.74    1.00
  WS02006243WS02006242 CONDUIT    250.01     0  03:13      0.90    0.53    1.00
  WS02006242WS02006240 CONDUIT    250.02     0  03:13      0.81    0.99    1.00
  WS02006240WS02006239 CONDUIT    250.04     0  03:13      0.93    0.79    1.00
  WS02006239WS02006238 CONDUIT    250.05     0  03:13      0.80    0.80    1.00
  WS02006238WS02006235 CONDUIT    250.08     0  03:13      0.78    0.56    1.00
  WS02006235WS02006234 CONDUIT    443.27     0  03:14      1.15    4.68    1.00
  WS02006234WS02006232 CONDUIT    443.32     0  03:14      1.15    0.90    1.00
  WS02006232WS02006231 CONDUIT    443.35     0  03:14      1.15    0.93    1.00
  WS02006231WS02006230 CONDUIT    443.37     0  03:14      1.33    6.73    1.00
  WS02006230WS02006229 CONDUIT    454.16     0  03:14      1.18   10.11    1.00
  WS02006228WS02006109 CONDUIT    715.44     0  03:07      1.42    3.13    1.00
  WS02006116WS02004401 CONDUIT    723.31     0  03:08      0.96    1.00    1.00
  WS02006115WS02006116 CONDUIT    723.24     0  03:08      1.05    0.93    0.97
  WS02006113WS02006111 CONDUIT    726.61     0  03:01      2.57    0.87    0.61
  WS02006112WS02006115 CONDUIT    723.61     0  03:08      0.93    0.43    0.98
  WS02006111WS02006112 CONDUIT    716.01     0  03:08      1.72    0.34    0.78
  WS02006110WS02006113 CONDUIT    716.72     0  03:07      1.61    0.65    0.83
  WS02006109WS02006110 CONDUIT    716.67     0  03:07      1.43    1.38    1.00
  WS02004411WS02004412 CONDUIT    723.15     0  03:10      1.08    1.03    0.80
  WS02004401WS02004402 CONDUIT    723.36     0  03:08      0.96    0.87    1.00
  WS02004413WS02003067 CONDUIT    723.08     0  03:10      1.31    0.31    0.66
  WS02004412WS02004413 CONDUIT    723.08     0  03:10      1.00    0.48    0.87
  WS02004410WS02004411 CONDUIT    723.27     0  03:09      1.08    0.99    0.80
  WS02004409WS02004410 CONDUIT    723.43     0  03:09      1.08    0.94    0.80
  WS02004407WS02004409 CONDUIT    723.65     0  03:09      1.57    0.26    0.57
  WS02004406WS02004407 CONDUIT    723.69     0  03:09      1.29    0.32    0.67
  WS02004405WS02004406 CONDUIT    723.66     0  03:09      0.96    1.43    1.00
  WS02004404WS02004405 CONDUIT    723.61     0  03:09      1.13    7.09    1.00
  WS02004403WS02004404 CONDUIT    723.44     0  03:09      0.97    0.52    1.00
  WS02004402WS02004403 CONDUIT    723.40     0  03:08      0.99    1.04    1.00
  WS02004139WS02001211 CONDUIT    382.05     0  04:29      0.90    0.48    0.61
  WS02004138WS02004139 CONDUIT    394.13     0  00:00      3.62    0.08    0.45
  WS02003067WS02003066 CONDUIT    723.13     0  03:10      1.42    0.23    0.46
  WS02001213WS02003059 CONDUIT    396.61     0  04:30      0.89    0.65    0.82
  WS02001212WS02001213 CONDUIT    393.29     0  04:30      1.32    0.61    0.51
  WS02001211WS02001212 CONDUIT    391.34     0  04:29      0.78    0.30    0.68
  WS02003072WS02003073 CONDUIT   1125.50     0  03:13      1.84    2.43    0.53
  WS02003069WS02003072 CONDUIT   1125.48     0  03:12      1.72    0.54    0.56
  WS02003060WS02003069 CONDUIT   1125.21     0  03:12      1.95    0.44    0.51
  WS02003059WS02003060 CONDUIT    401.07     0  04:29      0.95    0.26    0.71
  HS02004901HS02004770 CONDUIT     20.52     0  03:01      0.07    0.08    0.42
  HS02004876HS02004881 CONDUIT     76.54     0  03:01      0.95    0.81    0.12
  HS02004870HS02004876 CONDUIT     61.90     0  03:01      0.65    0.04    0.14
  HS02004842HS02004848 CONDUIT     12.41     0  03:01      0.06    0.01    0.31
  HS02004837HS02004842 CONDUIT     12.98     0  03:02      0.42    0.01    0.32
  HS02004830HS02004837 CONDUIT     43.70     0  03:01      0.57    0.04    0.11
  HS02004824HS02004830 CONDUIT     43.66     0  03:01      0.59    0.06    0.11
  HS02004817HS02004824 CONDUIT     85.68     0  03:01      0.26    0.04    0.48
  HS02004770HS02004777 CONDUIT    104.13     0  03:01      0.35    0.19    0.43
  HS02004799HS02004480 CONDUIT    258.30     0  03:01      0.83    0.33    0.44
  HS02004792HS02004799 CONDUIT    237.02     0  03:01      0.95    0.15    0.36
  HS02004788HS02004792 CONDUIT    135.43     0  03:01      1.06    0.09    0.18
  HS02004785HS02004788 CONDUIT    103.22     0  03:02      0.71    0.78    0.21
  HS02004777HS02004785 CONDUIT    103.37     0  03:01      0.42    0.13    0.35
  HS02004480HS02004478 CONDUIT    302.29     0  03:01      1.26    1.27    0.34
  HS02004479HS02004480 CONDUIT     46.30     0  03:02      0.32    0.04    0.43
  HS02004862HS02004870 CONDUIT     47.43     0  03:01      0.66    0.05    0.10
  HS02004848HS02004852 CONDUIT     21.94     0  03:01      0.45    0.02    0.07
  HS02004856HS02004862 CONDUIT     32.47     0  03:01      0.48    0.03    0.10
  HS02004852HS02004856 CONDUIT     21.85     0  03:02      0.25    0.02    0.13
  HS02004802HS02004478 CONDUIT    111.52     0  03:02      0.45    0.10    0.36
  HS02004478WS02006287 CONDUIT    413.21     0  03:01      1.75    0.12    0.26
  HS02004817HS02004807 CONDUIT     86.14     0  03:01      0.19    0.05    0.63
  HS02004807HS02004802 CONDUIT    111.37     0  03:01      0.38    0.21    0.42
  YS02001759YS02001757 CONDUIT    571.78     0  02:38      0.73    0.41    1.00
  YS02001762YS02001759 CONDUIT    291.26     0  02:38      0.37    0.34    1.00
  YS02001765YS02001762 CONDUIT    291.56     0  02:38      0.37    0.27    1.00
  YS02001770YS02001767 CONDUIT    289.72     0  02:38      0.37    1.15    1.00
  YS02001774YS02001770 CONDUIT    609.35     0  03:05      0.78    0.39    1.00
  YS02001779YS02001774 CONDUIT    609.39     0  03:05      0.78    0.31    1.00
  YS02001649YS02001757 CONDUIT    820.93     0  02:35      1.05    0.50    1.00
  YS02001767YS02001765 CONDUIT    290.49     0  02:38      0.37    0.37    1.00
  YS02006561YS02001783 CONDUIT    982.63     0  03:00      2.15    0.51    1.00
  YS02001783YS02001784 CONDUIT    982.34     0  03:00      1.95    1.35    1.00
  YS02001784YS02001785 CONDUIT    983.55     0  03:00      1.96    2.29    1.00
  YS02001788YS02001790 CONDUIT    983.55     0  03:00      2.44    0.72    1.00
  YS02001790YS02001791 CONDUIT    983.79     0  03:00      2.89    1.07    1.00
  YS02001791YS02001793 CONDUIT    984.04     0  03:00      5.79    0.42    1.00
  YS02001910YS02001907 CONDUIT    449.60     0  03:00      0.57    0.25    1.00
  YS02001786YS02001788 CONDUIT    983.43     0  03:00      2.31    1.89    1.00
  YS02001915YS02001910 CONDUIT    449.56     0  03:00      0.59    0.22    1.00
  YS02001918YS02001915 CONDUIT    247.10     0  03:31      0.44    0.14    1.00
  YS02001923YS02001920 CONDUIT    201.05     0  02:46      0.72    0.09    1.00
  YS02001926YS02001923 CONDUIT    224.44     0  02:46      0.83    0.32    0.88
  YS02001929YS02001926 CONDUIT    172.26     0  02:46      0.89    0.08    0.78
  YS02001920YS02001918 CONDUIT    208.30     0  03:30      0.70    0.20    1.00
  YS02001629YS02163301 CONDUIT    201.43     0  02:24      0.26    0.25    1.00
  YS02001619YS02001622 CONDUIT    290.92     0  03:01      0.61    0.43    1.00
  YS02001622YS02001625 CONDUIT    290.71     0  03:01      0.37    0.16    1.00
  YS02001625YS02001629 CONDUIT    216.63     0  02:17      0.28    0.10    1.00
  YS02163301YS02001633 CONDUIT    203.69     0  02:27      0.26    0.19    1.00
  YS02163601YS02164001 CONDUIT    397.91     0  02:35      0.51    0.35    1.00
  YS02164001YS02001641 CONDUIT    397.68     0  02:35      0.51    0.54    1.00
  YS02001641YS02001644 CONDUIT    400.74     0  02:27      0.51    1.30    1.00
  YS02001647YS02001649 CONDUIT    710.05     0  03:04      0.90    0.37    1.00
  YS02006553YS02006556 CONDUIT    704.76     0  03:31      0.90    0.60    1.00
  YS02006556YS02006558 CONDUIT    705.13     0  03:31      0.90    0.56    1.00
  YSB6556YSB1171       CONDUIT     25.76     0  03:03      0.09    0.03    0.70
  YS02001907YS02006553 CONDUIT    704.90     0  03:31      0.78    0.83    1.00
  YS02006558YS02006561 CONDUIT    982.27     0  03:01      3.47    2.17    1.00
  YS02001633YS02163601 CONDUIT    398.04     0  02:35      0.51    0.42    1.00
  YS02001644YS02001647 CONDUIT    710.14     0  03:04      0.90    0.42    1.00
  YS02001745YS02001748 CONDUIT    550.38     0  02:27      1.47    0.21    0.96
  YS02001748YS02001751 CONDUIT    339.69     0  03:01      1.06    0.17    1.00
  YS02001751YS02001754 CONDUIT    339.77     0  03:01      0.92    0.16    1.00
  YS02001754YS02001757 CONDUIT    339.91     0  03:01      0.43    0.14    1.00
  YS02001882YS02001884 CONDUIT     34.26     0  02:35      0.13    0.04    1.00
  YS02001884YS02001887 CONDUIT     67.44     0  02:35      0.09    0.09    1.00
  YS02001890YS02001895 CONDUIT    494.74     0  03:01      0.63    0.23    1.00
  YS02001895YS02001898 CONDUIT    494.53     0  03:00      0.63    0.86    1.00
  YS02001898YS02001901 CONDUIT    494.51     0  03:00      0.63    0.32    1.00
  YS02001901YS02001904 CONDUIT    494.79     0  03:01      0.63    0.77    1.00
  YS02001904YS02001907 CONDUIT    494.77     0  03:01      0.63    0.17    1.00
  YS02001887YS02001890 CONDUIT    495.37     0  03:01      0.63    0.85    1.00
  YS02001652YS02001649 CONDUIT    372.97     0  03:01      0.63    0.18    1.00
  YS02001655YS02001652 CONDUIT    372.10     0  03:01      0.98    0.18    1.00
  YS02001658YS02001655 CONDUIT    386.83     0  02:17      1.22    0.16    1.00
  YS02001661YS02001658 CONDUIT    599.10     0  02:23      1.55    0.24    1.00
  YS02001664YS02001661 CONDUIT    604.27     0  02:45      1.43    0.19    0.77
  YSB1154YSB6556       CONDUIT     25.83     0  03:01      0.17    0.05    0.59
  YSB1174YSB1171       CONDUIT     20.15     0  03:01      0.07    0.03    0.70
  YSB1171HS02004479    CONDUIT     44.91     0  03:02      0.54    0.03    0.55
  HS02004881HS02006253 CONDUIT     84.16     0  03:01      2.17    0.02    0.47
  YS02001793JiankangQianchi CONDUIT    983.99     0  02:59     16.88    0.08    1.00
  YS02001757CaochengTiaoxuchi CONDUIT   1577.22     0  02:35      2.02    0.69    1.00
  WSF200WS02003060     CONDUIT    723.25     0  03:11      1.76    0.16    0.39
  1                    CONDUIT   1127.30     0  03:13      3.43    0.39    0.44
  CC-Pump-1            PUMP       200.00     0  03:10              1.00
  CC-Pump-2            PUMP         0.00     0  00:00              0.00
  JK-Pump-1            PUMP       300.00     0  02:10              1.00
  JK-Pump-2            PUMP       683.00     0  02:10              1.00
  XR-Pump-1            PUMP        95.00     0  00:00              1.00
  XR-Pump-2            PUMP        95.00     0  00:00              1.00
  XR-Pump-3            PUMP        95.00     0  00:00              1.00
  XR-Pump-4            PUMP        95.00     0  00:00              1.00
  
  
  ***************************
  Flow Classification Summary
  ***************************
  
  -------------------------------------------------------------------------------------
                      Adjusted    ---------- Fraction of Time in Flow Class ---------- 
                       /Actual         Up    Down  Sub   Sup   Up    Down  Norm  Inlet 
  Conduit               Length    Dry  Dry   Dry   Crit  Crit  Crit  Crit  Ltd   Ctrl  
  -------------------------------------------------------------------------------------
  WS02003066WSF200        1.00   0.01  0.03  0.00  0.00  0.97  0.00  0.00  0.71  0.00
  WS02006287WS02006284    1.00   0.03  0.01  0.00  0.55  0.40  0.00  0.00  0.62  0.00
  WS02006284WS02006280    1.00   0.04  0.00  0.00  0.00  0.00  0.00  0.96  0.00  0.00
  WS02006280WS02006229    1.00   0.04  0.00  0.00  0.00  0.00  0.00  0.96  0.00  0.00
  WS02006229WS02006228    1.00   0.00  0.00  0.00  1.00  0.00  0.00  0.00  0.00  0.00
  WS02006256WS02006235    1.00   0.01  0.00  0.00  0.99  0.00  0.00  0.00  0.00  0.00
  WS02006253WS02006251    1.00   0.02  0.02  0.00  0.96  0.00  0.01  0.00  0.00  0.00
  WS02006252WS02006251    1.00   0.22  0.00  0.00  0.02  0.01  0.76  0.00  0.00  0.00
  WS02006251WS02006249    1.00   0.00  0.00  0.00  1.00  0.00  0.00  0.00  0.34  0.00
  WS02006249WS02006248    1.00   0.00  0.00  0.00  0.86  0.00  0.13  0.00  0.00  0.00
  WS02006248WS02006247    1.00   0.01  0.00  0.00  0.99  0.00  0.00  0.01  0.24  0.00
  WS02006247WS02006245    1.00   0.01  0.00  0.00  0.98  0.00  0.00  0.02  0.00  0.00
  WS02006245WS02006243    1.00   0.01  0.00  0.00  0.95  0.00  0.00  0.04  0.01  0.00
  WS02006243WS02006242    1.00   0.01  0.00  0.00  0.99  0.00  0.00  0.00  0.27  0.00
  WS02006242WS02006240    1.00   0.01  0.00  0.00  0.99  0.00  0.01  0.00  0.00  0.00
  WS02006240WS02006239    1.00   0.01  0.00  0.00  0.94  0.00  0.00  0.05  0.02  0.00
  WS02006239WS02006238    1.00   0.01  0.00  0.00  0.99  0.00  0.00  0.00  0.09  0.00
  WS02006238WS02006235    1.00   0.01  0.00  0.00  0.99  0.00  0.00  0.00  0.00  0.00
  WS02006235WS02006234    1.00   0.01  0.00  0.00  0.96  0.00  0.04  0.00  0.00  0.00
  WS02006234WS02006232    1.00   0.01  0.00  0.00  0.99  0.00  0.00  0.00  0.05  0.00
  WS02006232WS02006231    1.00   0.01  0.00  0.00  0.99  0.00  0.00  0.00  0.00  0.00
  WS02006231WS02006230    1.00   0.01  0.00  0.00  0.64  0.00  0.35  0.00  0.00  0.00
  WS02006230WS02006229    1.00   0.00  0.00  0.00  0.99  0.00  0.00  0.01  0.00  0.00
  WS02006228WS02006109    1.00   0.00  0.00  0.00  1.00  0.00  0.00  0.00  0.01  0.00
  WS02006116WS02004401    1.00   0.02  0.00  0.00  0.98  0.00  0.00  0.00  0.00  0.00
  WS02006115WS02006116    1.00   0.02  0.00  0.00  0.98  0.00  0.00  0.00  0.00  0.00
  WS02006113WS02006111    1.00   0.01  0.00  0.00  0.00  0.99  0.00  0.00  0.22  0.00
  WS02006112WS02006115    1.00   0.01  0.00  0.00  0.98  0.00  0.00  0.00  0.00  0.00
  WS02006111WS02006112    1.00   0.01  0.00  0.00  0.98  0.00  0.00  0.00  0.89  0.00
  WS02006110WS02006113    1.00   0.00  0.01  0.00  0.99  0.00  0.00  0.00  0.00  0.00
  WS02006109WS02006110    1.00   0.00  0.00  0.00  0.99  0.00  0.00  0.00  0.00  0.00
  WS02004411WS02004412    1.00   0.02  0.00  0.00  0.98  0.00  0.00  0.00  0.00  0.00
  WS02004401WS02004402    1.00   0.02  0.00  0.00  0.98  0.00  0.00  0.00  0.00  0.00
  WS02004413WS02003067    1.00   0.03  0.00  0.00  0.00  0.00  0.97  0.00  0.00  0.00
  WS02004412WS02004413    1.00   0.02  0.00  0.00  0.97  0.00  0.00  0.00  0.00  0.00
  WS02004410WS02004411    1.00   0.02  0.00  0.00  0.98  0.00  0.00  0.00  0.00  0.00
  WS02004409WS02004410    1.00   0.02  0.00  0.00  0.98  0.00  0.00  0.00  0.00  0.00
  WS02004407WS02004409    1.00   0.02  0.00  0.00  0.97  0.00  0.00  0.00  0.93  0.00
  WS02004406WS02004407    1.00   0.00  0.02  0.00  0.98  0.00  0.00  0.00  0.00  0.00
  WS02004405WS02004406    1.00   0.00  0.00  0.00  1.00  0.00  0.00  0.00  0.03  0.00
  WS02004404WS02004405    1.00   0.00  0.00  0.00  1.00  0.00  0.00  0.00  0.00  0.00
  WS02004403WS02004404    1.00   0.00  0.02  0.00  0.98  0.00  0.00  0.00  0.00  0.00
  WS02004402WS02004403    1.00   0.02  0.00  0.00  0.98  0.00  0.00  0.00  0.00  0.00
  WS02004139WS02001211    1.00   0.00  0.00  0.00  1.00  0.00  0.00  0.00  0.00  0.00
  WS02004138WS02004139    1.00   0.00  0.00  0.00  1.00  0.00  0.00  0.00  1.00  0.00
  WS02003067WS02003066    1.00   0.03  0.00  0.00  0.97  0.00  0.00  0.00  0.00  0.00
  WS02001213WS02003059    1.00   0.00  0.00  0.00  1.00  0.00  0.00  0.00  0.00  0.00
  WS02001212WS02001213    1.00   0.00  0.00  0.00  0.92  0.00  0.08  0.00  0.00  0.00
  WS02001211WS02001212    1.00   0.00  0.00  0.00  1.00  0.00  0.00  0.00  0.00  0.00
  WS02003072WS02003073    1.00   0.00  0.00  0.00  0.00  0.00  0.00  1.00  0.00  0.00
  WS02003069WS02003072    1.00   0.00  0.00  0.00  1.00  0.00  0.00  0.00  0.11  0.00
  WS02003060WS02003069    1.00   0.00  0.00  0.00  0.99  0.01  0.00  0.00  0.08  0.00
  WS02003059WS02003060    1.00   0.00  0.00  0.00  1.00  0.00  0.00  0.00  0.00  0.00
  HS02004901HS02004770    1.00   0.04  0.00  0.00  0.96  0.00  0.00  0.00  0.00  0.00
  HS02004876HS02004881    1.00   0.01  0.00  0.00  0.92  0.07  0.00  0.00  0.00  0.00
  HS02004870HS02004876    1.00   0.00  0.00  0.00  1.00  0.00  0.00  0.00  0.95  0.00
  HS02004842HS02004848    1.00   0.00  0.04  0.00  0.96  0.00  0.00  0.00  0.55  0.00
  HS02004837HS02004842    1.00   0.00  0.00  0.00  1.00  0.00  0.00  0.00  0.11  0.00
  HS02004830HS02004837    1.00   0.00  0.00  0.00  1.00  0.00  0.00  0.00  0.99  0.00
  HS02004824HS02004830    1.00   0.00  0.00  0.00  1.00  0.00  0.00  0.00  0.00  0.00
  HS02004817HS02004824    1.00   0.00  0.00  0.00  1.00  0.00  0.00  0.00  1.00  0.00
  HS02004770HS02004777    1.00   0.00  0.04  0.00  0.96  0.00  0.00  0.00  0.02  0.00
  HS02004799HS02004480    1.00   0.00  0.01  0.00  0.95  0.00  0.04  0.00  0.00  0.00
  HS02004792HS02004799    1.00   0.00  0.00  0.00  1.00  0.00  0.00  0.00  0.98  0.00
  HS02004788HS02004792    1.00   0.00  0.00  0.00  1.00  0.00  0.00  0.00  0.98  0.00
  HS02004785HS02004788    1.00   0.00  0.00  0.00  1.00  0.00  0.00  0.00  0.00  0.00
  HS02004777HS02004785    1.00   0.00  0.00  0.00  1.00  0.00  0.00  0.00  0.12  0.00
  HS02004480HS02004478    1.00   0.04  0.00  0.00  0.65  0.00  0.00  0.31  0.00  0.00
  HS02004479HS02004480    1.00   0.01  0.00  0.00  0.99  0.00  0.00  0.00  0.11  0.00
  HS02004862HS02004870    1.00   0.00  0.00  0.00  1.00  0.00  0.00  0.00  0.03  0.00
  HS02004848HS02004852    1.00   0.04  0.00  0.00  0.96  0.00  0.00  0.00  0.62  0.00
  HS02004856HS02004862    1.00   0.00  0.05  0.00  0.95  0.00  0.00  0.00  0.83  0.00
  HS02004852HS02004856    1.00   0.04  0.00  0.00  0.96  0.00  0.00  0.00  0.85  0.00
  HS02004802HS02004478    1.00   0.04  0.00  0.00  0.96  0.00  0.00  0.00  0.02  0.00
  HS02004478WS02006287    1.00   0.05  0.00  0.00  0.73  0.22  0.00  0.00  0.64  0.00
  HS02004817HS02004807    1.00   0.00  0.04  0.00  0.96  0.00  0.00  0.00  0.01  0.00
  HS02004807HS02004802    1.00   0.04  0.00  0.00  0.96  0.00  0.00  0.00  0.00  0.00
  YS02001759YS02001757    1.00   0.00  0.00  0.00  1.00  0.00  0.00  0.00  0.16  0.00
  YS02001762YS02001759    1.00   0.00  0.00  0.00  1.00  0.00  0.00  0.00  0.03  0.00
  YS02001765YS02001762    1.00   0.00  0.00  0.00  1.00  0.00  0.00  0.00  0.13  0.00
  YS02001770YS02001767    1.00   0.00  0.00  0.00  1.00  0.00  0.00  0.00  0.00  0.00
  YS02001774YS02001770    1.00   0.00  0.04  0.00  0.96  0.00  0.00  0.00  0.02  0.00
  YS02001779YS02001774    1.00   0.00  0.00  0.00  1.00  0.00  0.00  0.00  0.18  0.00
  YS02001649YS02001757    1.00   0.00  0.00  0.00  1.00  0.00  0.00  0.00  0.16  0.00
  YS02001767YS02001765    1.00   0.00  0.00  0.00  1.00  0.00  0.00  0.00  0.00  0.00
  YS02006561YS02001783    1.00   0.05  0.00  0.00  0.36  0.59  0.00  0.00  0.49  0.00
  YS02001783YS02001784    1.00   0.00  0.06  0.00  0.94  0.00  0.00  0.00  0.01  0.00
  YS02001784YS02001785    1.00   0.00  0.00  0.00  1.00  0.00  0.00  0.00  0.17  0.00
  YS02001788YS02001790    1.00   0.00  0.00  0.00  0.39  0.61  0.00  0.00  0.38  0.00
  YS02001790YS02001791    1.00   0.00  0.00  0.00  0.34  0.66  0.00  0.00  0.45  0.00
  YS02001791YS02001793    1.00   0.00  0.00  0.00  0.37  0.63  0.00  0.00  0.03  0.00
  YS02001910YS02001907    1.00   0.00  0.00  0.00  0.99  0.00  0.00  0.01  0.12  0.00
  YS02001786YS02001788    1.00   0.00  0.00  0.00  0.38  0.62  0.00  0.00  0.00  0.00
  YS02001915YS02001910    1.00   0.00  0.00  0.00  0.99  0.01  0.00  0.00  0.15  0.00
  YS02001918YS02001915    1.00   0.00  0.00  0.00  0.99  0.00  0.00  0.00  0.55  0.00
  YS02001923YS02001920    1.00   0.00  0.00  0.00  1.00  0.00  0.00  0.00  0.84  0.00
  YS02001926YS02001923    1.00   0.00  0.03  0.00  0.17  0.00  0.80  0.00  0.00  0.00
  YS02001929YS02001926    1.00   0.00  0.04  0.00  0.96  0.00  0.00  0.00  0.77  0.00
  YS02001920YS02001918    1.00   0.00  0.00  0.00  1.00  0.00  0.00  0.00  0.00  0.00
  YS02001629YS02163301    1.00   0.05  0.00  0.00  0.95  0.00  0.00  0.00  0.00  0.00
  YS02001619YS02001622    1.00   0.04  0.00  0.00  0.96  0.00  0.00  0.00  0.00  0.00
  YS02001622YS02001625    1.00   0.04  0.00  0.00  0.96  0.00  0.00  0.00  0.04  0.00
  YS02001625YS02001629    1.00   0.04  0.02  0.00  0.93  0.00  0.02  0.00  0.00  0.00
  YS02163301YS02001633    1.00   0.00  0.05  0.00  0.95  0.00  0.00  0.00  0.00  0.00
  YS02163601YS02164001    1.00   0.00  0.03  0.00  0.97  0.00  0.00  0.00  0.00  0.00
  YS02164001YS02001641    1.00   0.00  0.03  0.00  0.97  0.00  0.00  0.00  0.06  0.00
  YS02001641YS02001644    1.00   0.00  0.00  0.00  1.00  0.00  0.00  0.00  0.00  0.00
  YS02001647YS02001649    1.00   0.00  0.05  0.00  0.95  0.00  0.00  0.00  0.01  0.00
  YS02006553YS02006556    1.00   0.00  0.00  0.00  1.00  0.00  0.00  0.00  0.03  0.00
  YS02006556YS02006558    1.00   0.00  0.00  0.00  1.00  0.00  0.00  0.00  0.00  0.00
  YSB6556YSB1171          1.00   0.01  0.03  0.00  0.96  0.00  0.00  0.00  0.00  0.00
  YS02001907YS02006553    1.00   0.00  0.01  0.00  0.99  0.00  0.00  0.00  0.00  0.00
  YS02006558YS02006561    1.00   0.05  0.00  0.00  0.17  0.77  0.00  0.00  0.50  0.00
  YS02001633YS02163601    1.00   0.00  0.00  0.00  1.00  0.00  0.00  0.00  0.15  0.00
  YS02001644YS02001647    1.00   0.00  0.05  0.00  0.95  0.00  0.00  0.00  0.00  0.00
  YS02001745YS02001748    1.00   0.00  0.00  0.00  0.90  0.01  0.00  0.09  0.04  0.00
  YS02001748YS02001751    1.00   0.00  0.00  0.00  0.97  0.03  0.00  0.00  0.15  0.00
  YS02001751YS02001754    1.00   0.00  0.00  0.00  0.94  0.00  0.00  0.06  0.02  0.00
  YS02001754YS02001757    1.00   0.00  0.00  0.00  1.00  0.00  0.00  0.00  0.18  0.00
  YS02001882YS02001884    1.00   0.05  0.00  0.00  0.95  0.00  0.00  0.00  0.00  0.00
  YS02001884YS02001887    1.00   0.02  0.02  0.00  0.96  0.00  0.00  0.00  0.00  0.00
  YS02001890YS02001895    1.00   0.00  0.05  0.00  0.95  0.00  0.00  0.00  0.00  0.00
  YS02001895YS02001898    1.00   0.05  0.00  0.00  0.94  0.00  0.01  0.00  0.00  0.00
  YS02001898YS02001901    1.00   0.05  0.00  0.00  0.95  0.00  0.00  0.00  0.01  0.00
  YS02001901YS02001904    1.00   0.05  0.00  0.00  0.95  0.00  0.00  0.00  0.00  0.00
  YS02001904YS02001907    1.00   0.00  0.05  0.00  0.95  0.00  0.00  0.00  0.00  0.00
  YS02001887YS02001890    1.00   0.00  0.00  0.00  0.99  0.00  0.01  0.00  0.00  0.00
  YS02001652YS02001649    1.00   0.00  0.00  0.00  1.00  0.00  0.00  0.00  0.16  0.00
  YS02001655YS02001652    1.00   0.00  0.00  0.00  0.94  0.00  0.00  0.06  0.02  0.00
  YS02001658YS02001655    1.00   0.00  0.04  0.00  0.93  0.03  0.00  0.00  0.08  0.00
  YS02001661YS02001658    1.00   0.04  0.00  0.00  0.90  0.05  0.00  0.00  0.08  0.00
  YS02001664YS02001661    1.00   0.04  0.00  0.00  0.91  0.05  0.00  0.00  0.19  0.00
  YSB1154YSB6556          1.00   0.04  0.00  0.00  0.96  0.00  0.00  0.00  0.01  0.00
  YSB1174YSB1171          1.00   0.02  0.01  0.00  0.97  0.00  0.00  0.00  0.00  0.00
  YSB1171HS02004479       1.00   0.01  0.00  0.00  0.98  0.00  0.00  0.01  0.10  0.00
  HS02004881HS02006253    1.00   0.02  0.00  0.00  0.47  0.03  0.00  0.48  0.29  0.00
  YS02001793JiankangQianchi    1.00   0.00  0.00  0.00  0.66  0.34  0.00  0.00  0.43  0.00
  YS02001757CaochengTiaoxuchi    1.00   0.00  0.07  0.00  0.93  0.00  0.00  0.00  0.00  0.00
  WSF200WS02003060        1.00   0.00  0.01  0.00  0.99  0.00  0.00  0.00  0.55  0.00
  1                       1.00   0.00  0.00  0.00  0.00  1.00  0.00  0.00  0.47  0.00
  
  
  *************************
  Conduit Surcharge Summary
  *************************
  
  ----------------------------------------------------------------------------
                                                           Hours        Hours 
                         --------- Hours Full --------   Above Full   Capacity
  Conduit                Both Ends  Upstream  Dnstream   Normal Flow   Limited
  ----------------------------------------------------------------------------
  WS02006229WS02006228        2.67      2.82      2.67      3.37         2.67
  WS02006256WS02006235        5.32      5.32      6.96      4.10         0.01
  WS02006253WS02006251        0.29      0.29      0.35      0.01         0.01
  WS02006252WS02006251        0.01      0.01      0.05      0.01         0.01
  WS02006251WS02006249        0.31      0.31      0.39      0.01         0.01
  WS02006249WS02006248        0.35      0.35      0.39      1.25         0.01
  WS02006248WS02006247        0.39      0.39      0.47      0.01         0.01
  WS02006247WS02006245        0.48      0.48      0.48      2.12         0.47
  WS02006245WS02006243        0.49      0.49      0.53      0.01         0.01
  WS02006243WS02006242        0.54      0.54      1.02      0.01         0.01
  WS02006242WS02006240        0.96      0.96      1.32      0.01         0.01
  WS02006240WS02006239        1.00      1.00      1.30      0.01         0.01
  WS02006239WS02006238        1.62      1.62      1.96      0.01         0.01
  WS02006238WS02006235        1.95      1.95      2.17      0.01         0.01
  WS02006235WS02006234        1.37      1.37      1.82      5.15         0.01
  WS02006234WS02006232        1.66      1.66      2.40      0.01         0.01
  WS02006232WS02006231        0.74      0.74      2.40      0.01         0.01
  WS02006231WS02006230        0.59      0.59      0.76      5.50         0.01
  WS02006230WS02006229        3.11      3.31      3.11      5.93         3.11
  WS02006228WS02006109        2.78      2.97      2.78      4.27         2.78
  WS02006116WS02004401        0.21      0.21      0.22      0.01         0.01
  WS02006112WS02006115        0.01      0.01      1.30      0.01         0.01
  WS02006111WS02006112        0.01      0.01      3.45      0.01         0.01
  WS02006110WS02006113        0.01      0.01      2.90      0.01         0.01
  WS02006109WS02006110        1.04      1.04      2.97      1.05         0.01
  WS02004411WS02004412        0.01      0.01      0.01      0.17         0.01
[...]
  YS02001762YS02001759        5.87      5.87      5.89      0.01         0.01
  YS02001765YS02001762        5.84      5.84      5.87      0.01         0.01
  YS02001770YS02001767        5.81      5.81      5.81      0.18         0.66
  YS02001774YS02001770        5.80      5.80      5.86      0.01         0.01
  YS02001779YS02001774        5.67      5.67      5.86      0.01         0.01
  YS02001649YS02001757        5.87      5.87      5.98      0.01         0.01
  YS02001767YS02001765        5.81      5.81      5.84      0.01         0.01
  YS02006561YS02001783        0.77      0.77      1.05      0.01         0.01
  YS02001783YS02001784        1.03      1.05      1.03      1.39         1.02
  YS02001784YS02001785        0.98      1.03      0.98      2.40         0.98
  YS02001788YS02001790        0.93      0.93      1.96      0.01         0.01
  YS02001790YS02001791        1.95      1.96      2.07      0.87         0.85
  YS02001791YS02001793        2.07      2.07      2.47      0.01         0.01
  YS02001910YS02001907        1.07      1.07      1.76      0.01         0.01
  YS02001786YS02001788        0.93      0.98      0.93      2.02         0.92
  YS02001915YS02001910        0.89      0.89      1.07      0.01         0.01
  YS02001918YS02001915        0.71      0.71      0.89      0.01         0.01
  YS02001923YS02001920        0.54      0.54      0.74      0.01         0.01
  YS02001920YS02001918        0.71      0.71      0.74      0.01         0.01
  YS02001629YS02163301        5.80      5.80      5.81      0.01         0.01
  YS02001619YS02001622        5.47      5.47      5.50      0.01         0.01
  YS02001622YS02001625        5.50      5.50      5.76      0.01         0.01
  YS02001625YS02001629        5.48      5.48      5.76      0.01         0.01
  YS02163301YS02001633        5.81      5.81      5.84      0.01         0.01
  YS02163601YS02164001        5.84      5.84      5.87      0.01         0.01
  YS02164001YS02001641        5.84      5.84      5.85      0.01         0.03
  YS02001641YS02001644        5.85      5.85      5.85      1.52         1.60
  YS02001647YS02001649        5.75      5.75      5.87      0.01         0.01
  YS02006553YS02006556        1.30      1.30      1.84      0.01         0.01
  YS02006556YS02006558        1.54      1.54      1.92      0.01         0.01
  YS02001907YS02006553        2.41      2.41      2.62      0.01         0.01
  YS02006558YS02006561        0.91      1.26      0.91      2.24         0.91
  YS02001633YS02163601        5.83      5.83      5.87      0.01         0.01
  YS02001644YS02001647        5.75      5.75      5.85      0.01         0.01
  YS02001745YS02001748        0.01      0.01      5.30      0.01         0.01
  YS02001748YS02001751        5.35      5.35      5.48      0.01         0.01
  YS02001751YS02001754        5.48      5.48      5.69      0.01         0.01
  YS02001754YS02001757        5.74      5.74      5.98      0.01         0.01
  YS02001882YS02001884        0.90      0.90      0.93      0.01         0.01
  YS02001884YS02001887        0.97      0.97      1.00      0.01         0.01
  YS02001890YS02001895        0.88      0.88      1.08      0.01         0.01
  YS02001895YS02001898        0.87      0.87      0.88      0.01         0.01
  YS02001898YS02001901        0.89      0.89      0.96      0.01         0.01
  YS02001901YS02001904        0.94      0.94      0.96      0.01         0.01
  YS02001904YS02001907        0.94      0.94      1.88      0.01         0.01
  YS02001887YS02001890        1.02      1.02      1.04      0.01         0.01
  YS02001652YS02001649        5.76      5.76      5.87      0.01         0.01
  YS02001655YS02001652        5.50      5.50      5.73      0.01         0.01
  YS02001658YS02001655        5.33      5.33      5.50      0.01         0.01
  YS02001661YS02001658        0.16      0.16      5.33      0.01         0.01
  YS02001664YS02001661        0.01      0.01      1.20      0.01         0.01
  YS02001793JiankangQianchi        2.37      2.37      4.45      0.01         0.01
  YS02001757CaochengTiaoxuchi        5.21      5.21      5.98      0.01         0.01
  
  
  ***************
  Pumping Summary
  ***************
  
  ---------------------------------------------------------------------------------------------------------
                                                  Min       Avg       Max     Total     Power    % Time Off
                        Percent   Number of      Flow      Flow      Flow    Volume     Usage    Pump Curve
  Pump                 Utilized   Start-Ups       LPS       LPS       LPS  10^6 ltr     Kw-hr    Low   High
  ---------------------------------------------------------------------------------------------------------
  CC-Pump-1               46.80           4      0.00    142.97    200.00     1.680      0.90    0.0    0.0
  CC-Pump-2                0.00           0      0.00      0.00      0.00     0.000      0.00    0.0    0.0
  JK-Pump-1               55.31           5      0.00    232.23    300.00     3.330     51.21    0.0    0.0
  JK-Pump-2               51.04           4      0.00    451.06    683.00     6.083     84.39    0.0   95.4
  XR-Pump-1              100.00           1      0.00     93.88     95.00     2.622     27.71    0.0    0.0
  XR-Pump-2              100.00           1      0.00     93.36     95.00     2.565     26.44    0.0    0.0
  XR-Pump-3               95.74           3      0.00     93.60     95.00     2.451     23.88    0.0    0.0
  XR-Pump-4               95.74           3      0.00     93.60     95.00     2.451     23.88    0.0    0.0
  
  
  ***************************
  Link Pollutant Load Summary
  ***************************
  
  ------------------------------------------------------------------------------------------
                                 COD            SS            TN            TP         NH4-N
  Link                            kg            kg            kg            kg            kg
  ------------------------------------------------------------------------------------------
  WS02003066WSF200           653.374      1206.907        18.069         1.630         9.635
  WS02006287WS02006284       268.000       498.077         9.346         0.943         5.214
  WS02006284WS02006280       268.483       498.851         9.394         0.949         5.244
  WS02006280WS02006229       268.450       498.785         9.392         0.949         5.243
  WS02006229WS02006228       649.106      1199.874        17.541         1.559         9.300
  WS02006256WS02006235       194.248       356.877         4.225         0.326         2.128
  WS02006253WS02006251        47.476        92.220         1.020         0.074         0.500
  WS02006252WS02006251       145.340       263.743         3.064         0.224         1.511
  WS02006251WS02006249       190.539       351.884         4.053         0.297         2.000
  WS02006249WS02006248       190.046       350.912         4.039         0.296         1.992
  WS02006248WS02006247       190.321       351.416         4.049         0.297         1.998
  WS02006247WS02006245       190.267       351.310         4.044         0.296         1.995
  WS02006245WS02006243       189.803       350.530         4.031         0.295         1.988
  WS02006243WS02006242       190.157       351.132         4.039         0.296         1.992
  WS02006242WS02006240       191.907       354.241         4.078         0.299         2.011
  WS02006240WS02006239       194.400       358.680         4.136         0.303         2.041
  WS02006239WS02006238       197.710       364.312         4.230         0.312         2.091
  WS02006238WS02006235       199.421       367.080         4.279         0.316         2.118
  WS02006235WS02006234       382.650       704.621         8.224         0.618         4.101
  WS02006234WS02006232       382.500       704.323         8.225         0.619         4.101
  WS02006232WS02006231       382.265       703.900         8.219         0.618         4.098
  WS02006231WS02006230       382.383       704.129         8.221         0.618         4.099
  WS02006230WS02006229       381.596       702.717         8.200         0.617         4.088
  WS02006228WS02006109       648.106      1198.149        17.487         1.553         9.268
  WS02006116WS02004401       660.513      1219.816        18.232         1.642         9.718
  WS02006115WS02006116       661.413      1221.416        18.262         1.645         9.734
  WS02006113WS02006111       654.471      1208.073        18.188         1.642         9.710
  WS02006112WS02006115       662.236      1222.864        18.296         1.649         9.754
  WS02006111WS02006112       653.895      1207.054        18.165         1.640         9.697
  WS02006110WS02006113       654.765      1208.587        18.203         1.644         9.719
  WS02006109WS02006110       655.741      1210.251        18.260         1.650         9.753
  WS02004411WS02004412       655.714      1211.050        18.154         1.638         9.683
  WS02004401WS02004402       659.632      1218.261        18.199         1.639         9.699
  WS02004413WS02003067       653.772      1207.626        18.078         1.630         9.640
  WS02004412WS02004413       654.939      1209.672        18.129         1.636         9.669
  WS02004410WS02004411       656.262      1212.027        18.171         1.640         9.692
  WS02004409WS02004410       656.823      1213.026        18.190         1.642         9.703
  WS02004407WS02004409       657.168      1213.649        18.199         1.643         9.707
  WS02004406WS02004407       657.165      1213.660        18.194         1.642         9.704
  WS02004405WS02004406       658.222      1215.498        18.244         1.647         9.733
  WS02004404WS02004405       658.747      1216.494        18.236         1.646         9.727
  WS02004403WS02004404       658.112      1215.569        18.145         1.634         9.669
  WS02004402WS02004403       658.843      1216.861        18.173         1.636         9.684
  WS02004139WS02001211      1416.977      2334.242       117.873        14.435        72.792
  WS02004138WS02004139      1423.225      2344.570       118.375        14.496        73.101
  WS02003067WS02003066       653.546      1207.214        18.075         1.630         9.638
  WS02001213WS02003059      1450.468      2387.126       121.297        14.866        74.942
  WS02001212WS02001213      1459.369      2401.751       122.040        14.957        75.401
  WS02001211WS02001212      1461.340      2404.950       122.214        14.979        75.509
  WS02003072WS02003073      2204.769      3754.710       149.311        17.743        90.804
  WS02003069WS02003072      2209.352      3762.174       149.705        17.792        91.048
  WS02003060WS02003069      2211.987      3766.618       149.885        17.813        91.158
  WS02003059WS02003060      1447.689      2382.480       121.090        14.841        74.815
  HS02004901HS02004770        10.269        19.474         0.195         0.015         0.091
  HS02004876HS02004881        37.311        72.564         0.842         0.062         0.416
  HS02004870HS02004876        28.155        54.617         0.677         0.051         0.338
  HS02004842HS02004848         5.466        10.275         0.115         0.008         0.053
  HS02004837HS02004842        10.071        17.579         0.584         0.067         0.347
  HS02004830HS02004837        65.636       112.698         4.557         0.546         2.785
  HS02004824HS02004830        66.386       113.899         4.628         0.555         2.830
  HS02004817HS02004824        88.201       156.962         5.083         0.584         3.051
  HS02004770HS02004777        39.290        75.455         0.819         0.055         0.377
  HS02004799HS02004480       131.385       245.316         3.680         0.335         1.932
  HS02004792HS02004799       119.068       220.623         3.496         0.327         1.853
  HS02004788HS02004792        68.387       126.836         2.388         0.235         1.309
  HS02004785HS02004788        40.726        77.744         0.969         0.074         0.471
  HS02004777HS02004785        40.053        76.653         0.908         0.067         0.433
  HS02004480HS02004478       165.917       312.517         4.243         0.375         2.195
  HS02004479HS02004480        38.141        72.964         0.884         0.079         0.462
  HS02004862HS02004870        21.012        40.110         0.536         0.043         0.270
  HS02004848HS02004852         8.056        15.277         0.167         0.011         0.077
  HS02004856HS02004862        14.070        27.336         0.284         0.019         0.133
  HS02004852HS02004856         8.063        15.288         0.167         0.011         0.077
  HS02004802HS02004478       102.876       186.862         5.163         0.576         3.055
  HS02004478WS02006287       268.205       498.426         9.363         0.945         5.225
  HS02004817HS02004807        86.882       154.846         4.957         0.568         2.972
  HS02004807HS02004802       103.103       187.219         5.195         0.580         3.075
  YS02001759YS02001757       305.816       554.736         6.157         0.427         3.011
  YS02001762YS02001759       157.726       288.342         3.345         0.236         1.656
  YS02001765YS02001762       158.279       289.939         3.375         0.239         1.674
  YS02001770YS02001767       159.042       293.077         3.208         0.213         1.559
  YS02001774YS02001770       208.299       398.430         4.046         0.268         1.956
  YS02001779YS02001774       207.741       397.282         4.143         0.282         2.023
  YS02001649YS02001757       350.786       628.554         7.127         0.490         3.439
  YS02001767YS02001765       159.396       292.542         3.411         0.242         1.693
  YS02006561YS02001783       935.665      1715.855        19.822         1.487         9.892
  YS02001783YS02001784       935.527      1715.625        19.817         1.487         9.889
  YS02001784YS02001785       942.819      1727.288        20.529         1.576        10.335
  YS02001788YS02001790       943.322      1728.063        20.600         1.585        10.380
  YS02001790YS02001791       944.370      1729.751        20.701         1.598        10.444
  YS02001791YS02001793       944.222      1729.486        20.696         1.597        10.440
  YS02001910YS02001907       330.059       599.146         8.227         0.641         4.250
  YS02001786YS02001788       942.970      1727.519        20.556         1.580        10.353
  YS02001915YS02001910       330.176       599.335         8.184         0.635         4.221
  YS02001918YS02001915       159.754       277.671         4.653         0.433         2.533
  YS02001923YS02001920       137.501       241.224         2.668         0.187         1.299
  YS02001926YS02001923       136.566       239.699         2.592         0.178         1.251
  YS02001929YS02001926       136.166       239.020         2.555         0.174         1.228
  YS02001920YS02001918       157.655       273.566         4.582         0.426         2.494
  YS02001629YS02163301       103.554       183.491         2.172         0.140         1.012
  YS02001619YS02001622       146.377       262.897         3.030         0.196         1.414
  YS02001622YS02001625       145.221       261.070         3.003         0.195         1.401
  YS02001625YS02001629       104.649       185.303         2.196         0.142         1.023
  YS02163301YS02001633       103.276       183.022         2.165         0.140         1.010
  YS02163601YS02164001       362.060       646.236         7.116         0.502         3.404
  YS02164001YS02001641       361.581       645.427         7.097         0.501         3.393
  YS02001641YS02001644       361.803       645.725         7.095         0.500         3.391
  YS02001647YS02001649       409.732       740.542         8.261         0.570         3.966
  YS02006553YS02006556       657.279      1199.715        14.226         1.094         7.174
  YS02006556YS02006558       657.176      1199.505        14.193         1.089         7.153
  YSB6556YSB1171              21.950        42.191         0.451         0.038         0.229
  YS02001907YS02006553       657.396      1199.961        14.239         1.096         7.183
  YS02006558YS02006561       935.707      1715.936        19.822         1.487         9.892
  YS02001633YS02163601       362.760       647.323         7.096         0.498         3.387
  YS02001644YS02001647       414.720       749.687         8.334         0.576         3.998
  YS02001745YS02001748       209.658       385.772         4.699         0.326         2.342
  YS02001748YS02001751       208.102       382.740         4.769         0.339         2.395
  YS02001751YS02001754       207.180       381.213         4.759         0.340         2.392
  YS02001754YS02001757       207.936       382.347         4.923         0.362         2.499
  YS02001882YS02001884         2.995         5.180         0.060         0.005         0.030
  YS02001884YS02001887         6.881        12.189         0.134         0.010         0.067
  YS02001890YS02001895       389.334       720.399         7.187         0.539         3.507
  YS02001895YS02001898       389.142       720.121         7.180         0.539         3.503
  YS02001898YS02001901       388.900       719.704         7.175         0.538         3.501
  YS02001901YS02001904       388.737       719.460         7.181         0.539         3.506
  YS02001904YS02001907       388.931       719.742         7.234         0.546         3.540
  YS02001887YS02001890       390.165       721.661         7.242         0.546         3.540
  YS02001652YS02001649       155.312       284.139         3.167         0.228         1.484
  YS02001655YS02001652       156.053       285.330         3.186         0.229         1.494
  YS02001658YS02001655       155.662       284.675         3.102         0.218         1.439
  YS02001661YS02001658       160.184       292.700         3.195         0.224         1.481
  YS02001664YS02001661       177.340       321.315         3.574         0.250         1.655
  YSB1154YSB6556              21.530        41.523         0.402         0.032         0.198
  YSB1174YSB1171              14.653        28.287         0.298         0.024         0.150
  YSB1171HS02004479           38.101        72.900         0.888         0.079         0.465
  HS02004881HS02006253        42.288        82.548         0.933         0.068         0.459
  YS02001793JiankangQianchi       944.292      1729.546        20.690         1.596        10.436
  YS02001757CaochengTiaoxuchi       476.156       858.396        10.085         0.729         4.970
  WSF200WS02003060           653.237      1206.647        18.070         1.630         9.636
  1                         2209.783      3762.161       149.962        17.827        91.218
  CC-Pump-1                  145.119       263.376         3.049         0.222         1.503
  CC-Pump-2                    0.000         0.000         0.000         0.000         0.000
  JK-Pump-1                  220.924       409.762         4.664         0.354         2.332
  JK-Pump-2                  502.865       932.725        10.611         0.804         5.305
  XR-Pump-1                  379.536       624.146        31.861         3.907        19.692
  XR-Pump-2                  366.893       603.916        30.647         3.755        18.933
  XR-Pump-3                  340.221       561.244        28.088         3.436        17.334
  XR-Pump-4                  340.221       561.244        28.088         3.436        17.334
  

  Analysis begun on:  Sun Jun 13 16:02:40 2021
  Analysis ended on:  Sun Jun 13 16:02:43 2021
  Total elapsed time: 00:00:03