
  EPA STORM WATER MANAGEMENT MODEL - VERSION 5.1 (Build 5.3.0.dev0)
  --------------------------------------------------------------

  
  *********************************************************
  NOTE: The summary statistics displayed in this report are
  based on results found at every computational time step,  
  not just on results from each reporting time step.
  *********************************************************
  
  ****************
  Analysis Options
  ****************
  Flow Units ............... CMS
  Process Models:
    Rainfall/Runoff ........ YES
    RDII ................... NO
    Snowmelt ............... NO
    Groundwater ............ NO
    Flow Routing ........... YES
    Ponding Allowed ........ YES
    Water Quality .......... NO
  Infiltration Method ...... HORTON
  Flow Routing Method ...... DYNWAVE
  Surcharge Method ......... EXTRAN
  Starting Date ............ 08/28/2015 08:00:00
  Ending Date .............. 08/28/2015 15:50:00
  Antecedent Dry Days ...... 0.0
  Report Time Step ......... 00:01:00
  Wet Time Step ............ 00:01:00
  Dry Time Step ............ 00:01:00
  Routing Time Step ........ 5.00 sec
  Variable Time Step ....... YES
  Maximum Trials ........... 8
  Number of Threads ........ 1
  Head Tolerance ........... 0.001500 m
  
  
  **************************        Volume         Depth
  Runoff Quantity Continuity     hectare-m            mm
  **************************     ---------       -------
  Total Precipitation ......         1.378         7.645
  Evaporation Loss .........         0.000         0.000
  Infiltration Loss ........         0.000         0.000
  Surface Runoff ...........         1.354         7.515
  Final Storage ............         0.024         0.131
  Continuity Error (%) .....        -0.007
  
  
  **************************        Volume        Volume
  Flow Routing Continuity        hectare-m      10^6 ltr
  **************************     ---------     ---------
  Dry Weather Inflow .......         0.396         3.955
  Wet Weather Inflow .......         1.354        13.542
  Groundwater Inflow .......         0.000         0.000
  RDII Inflow ..............         0.000         0.000
  External Inflow ..........         0.000         0.000
  External Outflow .........         0.591         5.914
  Flooding Loss ............         0.450         4.504
  Evaporation Loss .........         0.000         0.000
  Exfiltration Loss ........         0.000         0.000
  Initial Stored Volume ....         0.000         0.000
  Final Stored Volume ......         0.566         5.659
  Continuity Error (%) .....         8.117
  
  
  *************************
  Highest Continuity Errors
  *************************
  Node T5 (22.98%)
  Node T3 (17.07%)
  Node T1 (7.31%)
  Node T2 (6.55%)
  Node T6 (6.49%)
  
  
  ***************************
  Time-Step Critical Elements
  ***************************
  None
  
  
  ********************************
  Highest Flow Instability Indexes
  ********************************
  Link C13 (1)
  
  
  *************************
  Routing Time Step Summary
  *************************
  Minimum Time Step           :     4.50 sec
  Average Time Step           :     5.00 sec
  Maximum Time Step           :     5.00 sec
  Percent in Steady State     :     0.00
  Average Iterations per Step :     2.19
  Percent Not Converging      :     0.53
  
  
  ***************************
  Subcatchment Runoff Summary
  ***************************
  
  ------------------------------------------------------------------------------------------------------------------------------
                            Total      Total      Total      Total     Imperv       Perv      Total       Total     Peak  Runoff
                           Precip      Runon       Evap      Infil     Runoff     Runoff     Runoff      Runoff   Runoff   Coeff
  Subcatchment                 mm         mm         mm         mm         mm         mm         mm    10^6 ltr      CMS
  ------------------------------------------------------------------------------------------------------------------------------
  SC01                       7.65       0.00       0.00       0.00       7.56       0.00       7.56        2.49     0.65   0.989
  SC02                       7.65       0.00       0.00       0.00       7.55       0.00       7.55        1.72     0.44   0.988
  SC03                       7.65       0.00       0.00       0.00       7.58       0.00       7.58        1.36     0.37   0.991
  SC04                       7.65       0.00       0.00       0.00       7.45       0.00       7.45        0.51     0.11   0.975
  SC05                       7.65       0.00       0.00       0.00       7.55       0.00       7.55        1.18     0.30   0.988
  SC06                       7.65       0.00       0.00       0.00       7.40       0.00       7.40        2.41     0.51   0.968
  SC07                       7.65       0.00       0.00       0.00       7.45       0.00       7.45        0.35     0.08   0.975
  SC08                       7.65       0.00       0.00       0.00       7.53       0.00       7.53        2.11     0.51   0.985
  SC09                       7.65       0.00       0.00       0.00       7.50       0.00       7.50        0.52     0.12   0.981
  SC010                      7.65       0.00       0.00       0.00       7.53       0.00       7.53        0.89     0.22   0.985
  
  
  ******************
  Node Depth Summary
  ******************
  
  ---------------------------------------------------------------------------------
                                 Average  Maximum  Maximum  Time of Max    Reported
                                   Depth    Depth      HGL   Occurrence   Max Depth
  Node                 Type       Meters   Meters   Meters  days hr:min      Meters
  ---------------------------------------------------------------------------------
  J1                   JUNCTION     0.08     0.19    34.19     0  02:43        0.19
  J3                   JUNCTION     0.13     0.16    18.16     0  03:59        0.16
  CSO7                 JUNCTION     0.17     1.20    35.20     0  02:36        1.20
  J5                   JUNCTION     0.07     0.15    32.15     0  02:48        0.15
  CSO9                 JUNCTION     0.21     2.00    42.00     0  02:41        2.00
  J8                   JUNCTION     0.11     0.27    36.27     0  02:50        0.27
  CSO8                 JUNCTION     0.23     2.00    34.00     0  02:38        2.00
  J10                  JUNCTION     0.10     0.28    29.28     0  02:44        0.28
  J13                  JUNCTION     0.07     0.18    29.18     0  02:43        0.18
  J15                  JUNCTION     0.20     0.36    15.36     0  02:48        0.36
  J16                  JUNCTION     0.07     0.20    30.20     0  02:43        0.20
  CSO10                JUNCTION     0.15     1.00    31.00     0  02:36        1.00
  J12                  JUNCTION     0.30     0.48    26.48     0  05:35        0.48
  J4                   JUNCTION     0.16     1.28    34.28     0  02:36        0.76
  J6                   JUNCTION     0.08     0.11    25.11     0  03:38        0.11
  J2                   JUNCTION     0.06     0.08    25.08     0  03:54        0.08
  J19                  JUNCTION     0.14     0.17     8.17     0  02:40        0.17
  J9                   JUNCTION     0.13     0.16    29.16     0  03:45        0.16
  J14                  JUNCTION     0.14     0.18    20.18     0  06:26        0.18
  J17                  JUNCTION     0.10     0.13    20.13     0  03:22        0.13
  J7                   JUNCTION     0.09     0.23    39.23     0  02:49        0.23
  J11                  JUNCTION     0.10     0.30    31.30     0  02:53        0.30
  J18                  JUNCTION     0.06     0.16    29.16     0  02:53        0.16
  Out_to_WWTP          OUTFALL      0.14     0.17     6.17     0  02:39        0.17
  T5                   STORAGE      3.30     5.00    32.00     0  03:05        5.00
  T4                   STORAGE      1.50     3.11    30.11     0  03:37        3.11
  T6                   STORAGE      2.56     5.00    36.00     0  03:00        5.00
  T3                   STORAGE      2.94     4.48    26.48     0  05:40        4.48
  T2                   STORAGE      1.43     3.07    24.07     0  03:21        3.07
  T1                   STORAGE      3.65     5.00    15.00     0  02:38        5.00
  
  
  *******************
  Node Inflow Summary
  *******************
  
  -------------------------------------------------------------------------------------------------
                                  Maximum  Maximum                  Lateral       Total        Flow
                                  Lateral    Total  Time of Max      Inflow      Inflow     Balance
                                   Inflow   Inflow   Occurrence      Volume      Volume       Error
  Node                 Type           CMS      CMS  days hr:min    10^6 ltr    10^6 ltr     Percent
  -------------------------------------------------------------------------------------------------
  J1                   JUNCTION     0.322    0.322     0  02:43        1.74        1.74       0.029
  J3                   JUNCTION     0.000    0.278     0  03:58           0        5.55       0.832
  CSO7                 JUNCTION     0.089    0.089     0  02:47       0.644       0.644       0.074
  J5                   JUNCTION     0.118    0.189     0  02:47       0.642        1.26       0.100
  CSO9                 JUNCTION     0.129    0.129     0  02:45       0.714       0.714       0.061
  J8                   JUNCTION     0.541    0.668     0  02:49        3.35        4.06       0.104
  CSO8                 JUNCTION     0.525    0.525     0  02:44         2.4         2.4       0.020
  J10                  JUNCTION     0.387    0.871     0  02:42        1.75        4.12       0.089
  J13                  JUNCTION     0.457    0.457     0  02:43        2.19        2.19      -0.220
  J15                  JUNCTION     0.000    1.148     0  02:45           0        11.4       0.954
  J16                  JUNCTION     0.668    0.668     0  02:43        3.05        3.05      -0.022
  CSO10                JUNCTION     0.223    0.223     0  02:44        1.02        1.02       0.030
  J12                  JUNCTION     0.000    1.004     0  02:44           0        7.27       2.258
  J4                   JUNCTION     0.000    0.074     0  02:36           0       0.621       0.540
  J6                   JUNCTION     0.000    0.063     0  03:37           0         1.1       0.400
  J2                   JUNCTION     0.000    0.039     0  03:05           0       0.823       0.644
  J19                  JUNCTION     0.000    0.271     0  02:38           0        5.93       0.214
  J9                   JUNCTION     0.000    0.175     0  03:00           0        3.17       0.622
  J14                  JUNCTION     0.000    0.179     0  05:40           0        3.65       0.265
  J17                  JUNCTION     0.000    0.110     0  03:21           0        1.89       0.474
  J7                   JUNCTION     0.000    0.127     0  02:48           0       0.713       0.441
  J11                  JUNCTION     0.000    0.486     0  02:52           0        2.38       0.260
  J18                  JUNCTION     0.000    0.202     0  02:53           0        1.01       0.059
  Out_to_WWTP          OUTFALL      0.000    0.271     0  02:40           0        5.91       0.000
  T5                   STORAGE      0.000    0.321     0  02:43           0        1.74      29.839
  T4                   STORAGE      0.000    0.189     0  02:48           0        1.26       5.959
  T6                   STORAGE      0.000    0.667     0  02:50           0        4.05       6.938
  T3                   STORAGE      0.000    0.995     0  02:47           0        7.11      20.583
  T2                   STORAGE      0.000    0.457     0  02:43           0        2.19       7.011
  T1                   STORAGE      0.000    1.138     0  02:48           0        11.3       7.882
  
  
  **********************
  Node Surcharge Summary
  **********************
  
  Surcharging occurs when water rises above the top of the highest conduit.
  ---------------------------------------------------------------------
                                               Max. Height   Min. Depth
                                   Hours       Above Crown    Below Rim
  Node                 Type      Surcharged         Meters       Meters
  ---------------------------------------------------------------------
  CSO7                 JUNCTION        0.64          0.945        0.000
  CSO9                 JUNCTION        0.65          1.682        0.000
  CSO8                 JUNCTION        0.61          1.547        0.000
  CSO10                JUNCTION        0.44          0.560        0.000
  J4                   JUNCTION        0.61          0.980        0.720
  
  
  *********************
  Node Flooding Summary
  *********************
  
  Flooding refers to all water that overflows a node, whether it ponds or not.
  --------------------------------------------------------------------------
                                                             Total   Maximum
                                 Maximum   Time of Max       Flood    Ponded
                        Hours       Rate    Occurrence      Volume     Depth
  Node                 Flooded       CMS   days hr:min    10^6 ltr    Meters
  --------------------------------------------------------------------------
  CSO7                    0.47     0.018      0  02:47       0.023     0.000
  CSO9                    0.12     0.002      0  02:45       0.001     0.000
  CSO8                    0.24     0.039      0  02:44       0.022     0.000
  CSO10                   0.27     0.020      0  02:44       0.012     0.000
  T5                      0.82     0.155      0  03:05       0.116     0.000
  T6                      0.76     0.455      0  03:00       0.451     0.000
  T1                      5.19     0.867      0  02:48       3.880     0.000
  
  
  **********************
  Storage Volume Summary
  **********************
  
  --------------------------------------------------------------------------------------------------
                         Average     Avg  Evap Exfil       Maximum     Max    Time of Max    Maximum
                          Volume    Pcnt  Pcnt  Pcnt        Volume    Pcnt     Occurrence    Outflow
  Storage Unit           1000 m3    Full  Loss  Loss       1000 m3    Full    days hr:min        CMS
  --------------------------------------------------------------------------------------------------
  T5                       0.330      66     0     0         0.500     100       0  03:05      0.039
  T4                       0.150      30     0     0         0.311      62       0  03:37      0.063
  T6                       0.307      51     0     0         0.600     100       0  03:00      0.175
  T3                       1.531      59     0     0         2.329      90       0  05:40      0.179
  T2                       0.286      29     0     0         0.613      61       0  03:21      0.110
  T1                       0.512      73     0     0         0.700     100       0  02:38      0.271
  
  
  ***********************
  Outfall Loading Summary
  ***********************
  
  -----------------------------------------------------------
                         Flow       Avg       Max       Total
                         Freq      Flow      Flow      Volume
  Outfall Node           Pcnt       CMS       CMS    10^6 ltr
  -----------------------------------------------------------
  Out_to_WWTP           99.01     0.212     0.271       5.914
  -----------------------------------------------------------
  System                99.01     0.212     0.271       5.914
  
  
  ********************
  Link Flow Summary
  ********************
  
  -----------------------------------------------------------------------------
                                 Maximum  Time of Max   Maximum    Max/    Max/
                                  |Flow|   Occurrence   |Veloc|    Full    Full
  Link                 Type          CMS  days hr:min     m/sec    Flow   Depth
  -----------------------------------------------------------------------------
  C1                   CONDUIT     0.039     0  03:52      0.91    0.01    0.12
  C6                   CONDUIT     0.071     0  02:48      1.29    1.13    0.74
  C2                   CONDUIT     0.063     0  03:38      1.30    0.07    0.23
  C9                   CONDUIT     0.127     0  02:49      1.30    0.43    0.50
  C16                  CONDUIT     0.486     0  02:44      1.77    0.05    0.14
  C3                   CONDUIT     0.179     0  05:40      2.03    0.07    0.17
  C19                  CONDUIT     0.110     0  03:22      1.09    0.04    0.24
  C11                  CONDUIT     0.278     0  04:00      1.83    0.01    0.13
  C20                  CONDUIT     0.667     0  02:43      2.56    0.02    0.14
  C22                  CONDUIT     0.202     0  02:53      1.48    0.09    0.33
  C12                  CONDUIT     0.175     0  03:45      1.20    0.01    0.16
  C17                  CONDUIT     0.867     0  02:44      2.90    0.04    0.15
  C10                  CONDUIT     0.667     0  02:50      1.66    0.07    0.59
  C13                  CONDUIT     0.995     0  02:47      1.53    0.06    0.62
  C18                  CONDUIT     0.457     0  02:43      1.72    0.02    0.55
  C23                  CONDUIT     1.138     0  02:48      1.26    0.13    0.62
  C4                   CONDUIT     0.321     0  02:43      1.98    0.08    0.59
  C7                   CONDUIT     0.189     0  02:48      1.43    0.05    0.57
  C14                  CONDUIT     0.271     0  02:40      2.08    0.02    0.09
  C5                   CONDUIT     0.074     0  02:36      1.44    1.26    1.00
  C8                   CONDUIT     0.127     0  02:48      1.75    1.60    0.86
  C15                  CONDUIT     0.486     0  02:52      3.43    1.55    0.83
  C21                  CONDUIT     0.202     0  02:53      1.83    1.16    0.69
  V4                   ORIFICE     0.063     0  03:37                      1.00
  V5                   ORIFICE     0.039     0  03:05                      1.00
  V1                   ORIFICE     0.271     0  02:38                      1.00
  V6                   ORIFICE     0.175     0  03:00                      1.00
  V3                   ORIFICE     0.179     0  05:40                      1.00
  V2                   ORIFICE     0.110     0  03:21                      1.00
  
  
  ***************************
  Flow Classification Summary
  ***************************
  
  -------------------------------------------------------------------------------------
                      Adjusted    ---------- Fraction of Time in Flow Class ---------- 
                       /Actual         Up    Down  Sub   Sup   Up    Down  Norm  Inlet 
  Conduit               Length    Dry  Dry   Dry   Crit  Crit  Crit  Crit  Ltd   Ctrl  
  -------------------------------------------------------------------------------------
  C1                      1.00   0.00  0.00  0.00  0.92  0.08  0.00  0.00  0.95  0.00
  C6                      1.00   0.00  0.00  0.00  0.10  0.90  0.00  0.00  0.00  0.00
  C2                      1.00   0.00  0.00  0.00  0.06  0.94  0.00  0.00  0.94  0.00
  C9                      1.00   0.00  0.00  0.00  1.00  0.00  0.00  0.00  1.00  0.00
  C16                     1.00   0.00  0.00  0.00  0.57  0.43  0.00  0.00  0.45  0.00
  C3                      1.00   0.00  0.00  0.00  0.05  0.94  0.00  0.00  0.07  0.00
  C19                     1.00   0.00  0.00  0.00  1.00  0.00  0.00  0.00  1.00  0.00
  C11                     1.00   0.00  0.00  0.00  0.29  0.71  0.00  0.00  1.00  0.00
  C20                     1.00   0.00  0.00  0.00  0.64  0.36  0.00  0.00  0.98  0.00
  C22                     1.00   0.00  0.00  0.00  0.87  0.13  0.00  0.00  1.00  0.00
  C12                     1.00   0.00  0.00  0.00  0.91  0.09  0.00  0.00  1.00  0.00
  C17                     1.00   0.00  0.00  0.00  0.55  0.45  0.00  0.00  0.97  0.00
  C10                     1.00   0.00  0.00  0.00  0.94  0.06  0.00  0.00  0.97  0.00
  C13                     1.00   0.00  0.00  0.00  0.87  0.13  0.00  0.00  0.35  0.00
  C18                     1.00   0.00  0.00  0.00  0.81  0.19  0.00  0.00  0.97  0.00
  C23                     1.00   0.00  0.00  0.00  0.90  0.10  0.00  0.00  0.94  0.00
  C4                      1.00   0.00  0.00  0.00  0.96  0.04  0.00  0.00  0.98  0.00
  C7                      1.00   0.00  0.00  0.00  0.91  0.09  0.00  0.00  0.96  0.00
  C14                     1.00   0.00  0.00  0.00  0.00  0.99  0.00  0.00  0.00  0.00
  C5                      1.00   0.00  0.00  0.00  0.89  0.11  0.00  0.00  0.90  0.00
  C8                      1.00   0.00  0.00  0.00  0.12  0.88  0.00  0.00  0.00  0.00
  C15                     1.00   0.00  0.00  0.00  0.00  1.00  0.00  0.00  0.00  0.00
  C21                     1.00   0.00  0.00  0.00  0.00  1.00  0.00  0.00  0.00  0.00
  
  
  *************************
  Conduit Surcharge Summary
  *************************
  
  ----------------------------------------------------------------------------
                                                           Hours        Hours 
                         --------- Hours Full --------   Above Full   Capacity
  Conduit                Both Ends  Upstream  Dnstream   Normal Flow   Limited
  ----------------------------------------------------------------------------
  C6                          0.01      0.61      0.01      0.52         0.01
  C10                         0.01      0.01      5.38      0.01         0.01
  C13                         0.01      0.01      5.16      0.01         0.01
  C18                         0.01      0.01      2.49      0.01         0.01
  C23                         0.01      0.01      5.86      0.01         0.01
  C4                          0.01      0.01      5.88      0.01         0.01
  C7                          0.01      0.01      5.04      0.01         0.01
  C5                          0.63      0.64      0.73      0.69         0.61
  C8                          0.01      0.65      0.01      0.68         0.01
  C15                         0.01      0.61      0.01      0.68         0.01
  C21                         0.01      0.44      0.01      0.44         0.01
  

  Analysis begun on:  Tue Aug 31 22:49:28 2021
  Analysis ended on:  Tue Aug 31 22:49:28 2021
  Total elapsed time: < 1 sec