
  EPA STORM WATER MANAGEMENT MODEL - VERSION 5.1 (Build 5.3.0.dev0)
  --------------------------------------------------------------

  WARNING 04: minimum elevation drop used for Conduit WS02004404WS02004405
  WARNING 03: negative offset ignored for Link YS02001904YS02001907
  
  *********************************************************
  NOTE: The summary statistics displayed in this report are
  based on results found at every computational time step,  
  not just on results from each reporting time step.
  *********************************************************
  
  ****************
  Analysis Options
  ****************
  Flow Units ............... LPS
  Process Models:
    Rainfall/Runoff ........ YES
    RDII ................... NO
    Snowmelt ............... NO
    Groundwater ............ NO
    Flow Routing ........... YES
    Ponding Allowed ........ NO
    Water Quality .......... YES
  Infiltration Method ...... HORTON
  Flow Routing Method ...... DYNWAVE
  Surcharge Method ......... EXTRAN
  Starting Date ............ 08/28/2015 08:00:00
  Ending Date .............. 08/28/2015 15:50:00
  Antecedent Dry Days ...... 8.0
  Report Time Step ......... 00:01:00
  Wet Time Step ............ 00:01:00
  Dry Time Step ............ 00:01:00
  Routing Time Step ........ 5.00 sec
  Variable Time Step ....... YES
  Maximum Trials ........... 8
  Number of Threads ........ 4
  Head Tolerance ........... 0.001500 m
  
  
  **************************        Volume         Depth
  Runoff Quantity Continuity     hectare-m            mm
  **************************     ---------       -------
  Total Precipitation ......         6.144        13.452
  Evaporation Loss .........         0.000         0.000
  Infiltration Loss ........         1.064         2.328
  Surface Runoff ...........         4.147         9.079
  Final Storage ............         0.935         2.047
  Continuity Error (%) .....        -0.020
  
  
  **************************           COD            SS            TN            TP         NH4-N
  Runoff Quality Continuity             kg            kg            kg            kg            kg
  **************************    ----------    ----------    ----------    ----------    ----------
  Initial Buildup ..........     41378.656     70582.865      1804.177       168.684      1032.807
  Surface Buildup ..........        21.799        40.924         2.400         0.218         1.395
  Wet Deposition ...........         0.000         0.000         0.000         0.000         0.000
  Sweeping Removal .........         0.000         0.000         0.000         0.000         0.000
  Infiltration Loss ........        97.311       184.943         1.849         0.130         0.881
  BMP Removal ..............         0.000         0.000         0.000         0.000         0.000
  Surface Runoff ...........      3769.819      7064.251        72.781         4.964        34.599
  Remaining Buildup ........     37531.916     63371.884      1731.919       163.806       998.709
  Continuity Error (%) .....         0.003         0.004         0.002         0.001         0.001
  
  
  **************************        Volume        Volume
  Flow Routing Continuity        hectare-m      10^6 ltr
  **************************     ---------     ---------
  Dry Weather Inflow .......         0.616         6.165
  Wet Weather Inflow .......         4.145        41.452
  Groundwater Inflow .......         0.000         0.000
  RDII Inflow ..............         0.000         0.000
  External Inflow ..........         0.102         1.024
  External Outflow .........         1.842        18.425
  Flooding Loss ............         2.559        25.587
  Evaporation Loss .........         0.000         0.000
  Exfiltration Loss ........         0.000         0.000
  Initial Stored Volume ....         0.076         0.761
  Final Stored Volume ......         0.640         6.401
  Continuity Error (%) .....        -2.048
  
  
  **************************           COD            SS            TN            TP         NH4-N
  Quality Routing Continuity            kg            kg            kg            kg            kg
  **************************    ----------    ----------    ----------    ----------    ----------
  Dry Weather Inflow .......      1541.201      2465.922       147.955        18.494        92.472
  Wet Weather Inflow .......      3769.125      7063.121        72.765         4.964        34.592
  Groundwater Inflow .......         0.000         0.000         0.000         0.000         0.000
  RDII Inflow ..............         0.000         0.000         0.000         0.000         0.000
  External Inflow ..........       183.418       293.469        17.608         2.201        11.005
  External Outflow .........      2291.980      3958.493       146.825        17.290        88.862
  Flooding Loss ............      2519.893      4678.480        64.115         5.539        33.582
  Exfiltration Loss ........         0.000         0.000         0.000         0.000         0.000
  Mass Reacted .............         0.000         0.000         0.000         0.000         0.000
  Initial Stored Mass ......         0.000         0.000         0.000         0.000         0.000
  Final Stored Mass ........       571.885       998.271        24.556         2.602        14.168
  Continuity Error (%) .....         2.002         1.907         1.189         0.892         1.056
  
  
  *************************
  Highest Continuity Errors
  *************************
  Node HS02004842 (13.41%)
  Node YS02001884 (11.09%)
  Node JK-storage (-9.55%)
  Node HS02004817 (2.53%)
  Node YSB1171 (2.46%)
  
  
  ***************************
  Time-Step Critical Elements
  ***************************
  Link WS02006252WS02006251 (53.08%)
  Link WS02006280WS02006229 (12.73%)
  Link WS02006238WS02006235 (7.50%)
  Link YS02006556YS02006558 (5.86%)
  Link YS02001793JiankangQianchi (5.23%)
  
  
  ********************************
  Highest Flow Instability Indexes
  ********************************
  Link WS02006113WS02006111 (46)
  Link YS02163301YS02001633 (35)
  Link YS02163601YS02164001 (34)
  Link YS02001629YS02163301 (34)
  Link YS02001619YS02001622 (33)
  
  
  *************************
  Routing Time Step Summary
  *************************
  Minimum Time Step           :     0.50 sec
  Average Time Step           :     1.46 sec
  Maximum Time Step           :     5.00 sec
  Percent in Steady State     :    -0.00
  Average Iterations per Step :     4.10
  Percent Not Converging      :    18.36
  
  
  ***************************
  Subcatchment Runoff Summary
  ***************************
  
  ------------------------------------------------------------------------------------------------------------------------------
                            Total      Total      Total      Total     Imperv       Perv      Total       Total     Peak  Runoff
                           Precip      Runon       Evap      Infil     Runoff     Runoff     Runoff      Runoff   Runoff   Coeff
  Subcatchment                 mm         mm         mm         mm         mm         mm         mm    10^6 ltr      LPS
  ------------------------------------------------------------------------------------------------------------------------------
  sub0                      13.45       0.00       0.00       0.63      12.47       0.31      12.77        0.01     3.75   0.950
  sub1                      13.45       0.00       0.00       1.12      11.88       0.36      12.24        0.08    25.66   0.910
  sub2                      13.45       0.00       0.00       4.44       8.39       0.53       8.92        0.08    25.29   0.663
  sub3                      13.45       0.00       0.00       4.56       8.35       0.42       8.77        0.20    55.75   0.652
  sub4                      13.45       0.00       0.00       1.22      11.71       0.26      11.97        0.25    65.52   0.890
  sub5                      13.45       0.00       0.00       0.68      12.41       0.26      12.67        0.14    44.76   0.942
  sub7                      13.45       0.00       0.00       0.86      12.18       0.35      12.53        0.04    14.26   0.931
  sub8                      13.45       0.00       0.00       0.87      12.17       0.34      12.50        0.08    26.26   0.930
  sub9                      13.45       0.00       0.00       0.88      12.17       0.33      12.50        0.06    19.64   0.929
  sub10                     13.45       0.00       0.00       0.78      12.29       0.29      12.58        0.14    44.00   0.935
  sub11                     13.45       0.00       0.00       0.77      12.30       0.31      12.61        0.15    48.45   0.938
  sub12                     13.45       0.00       0.00       1.25      11.66       0.50      12.16        0.11    38.10   0.904
  sub14                     13.45       0.00       0.00       0.88      12.16       0.33      12.49        0.12    38.67   0.929
  sub15                     13.45       0.00       0.00       3.37       9.35       0.66      10.01        0.17    57.01   0.744
  sub16                     13.45       0.00       0.00       3.56       8.97       0.88       9.85        0.10    37.63   0.732
  sub17                     13.45       0.00       0.00       3.47       9.10       0.84       9.94        0.09    30.67   0.739
  sub22                     13.45       0.00       0.00       4.98       7.63       0.81       8.43        0.53   184.54   0.627
  sub23                     13.45       0.00       0.00       4.17       8.43       0.81       9.24        0.44   154.22   0.687
  sub60                     13.45       0.00       0.00       1.53       9.85       0.09       9.93        3.01   438.14   0.738
  sub61                     13.45       0.00       0.00       2.16       9.95       0.12      10.07        3.11   536.45   0.749
  sub62                     13.45       0.00       0.00       0.98      10.84       0.10      10.94        3.36   552.35   0.813
  sub63                     13.45       0.00       0.00       3.77       8.69       0.14       8.83        2.67   492.63   0.656
  sub64                     13.45       0.00       0.00       1.93       9.45       0.09       9.54        2.90   416.72   0.709
  sub65                     13.45       0.00       0.00       1.67       9.61       0.08       9.70        2.98   423.09   0.721
  sub66                     13.45       0.00       0.00       3.81       8.10       0.09       8.18        2.51   380.66   0.608
  sub67                     13.45       0.00       0.00       0.95      11.38       0.13      11.51        3.55   679.52   0.856
  sub68                     13.45       0.00       0.00       1.75      10.45       0.13      10.59        3.26   586.26   0.787
  sub69                     13.45       0.00       0.00       1.83      10.79       0.19      10.98        2.57   544.72   0.816
  sub70                     13.45      11.20       0.00       7.51      14.65       0.88      15.52        3.55   494.81   0.630
  sub71                     13.45       0.00       0.00       0.99      10.58       0.09      10.67        2.52   389.24   0.793
  sub72                     13.45       0.00       0.00       0.89       8.56       0.05       8.61        1.75   189.18   0.640
  1                         13.45      15.11       0.00       1.37      16.56       4.63      21.19        4.98   484.42   0.742
  2                         13.45       0.00       0.00       3.02       3.21       1.96       5.17        2.07   340.45   0.384
  
  
  ****************************
  Subcatchment Washoff Summary
  ****************************
  
  ------------------------------------------------------------------------------------------
                                 COD            SS            TN            TP         NH4-N
  Subcatchment                    kg            kg            kg            kg            kg
  ------------------------------------------------------------------------------------------
  sub0                         2.670         5.197         0.046         0.004         0.022
  sub1                        11.241        22.423         0.210         0.015         0.101
  sub2                         6.894        13.384         0.145         0.010         0.067
  sub3                        16.924        32.573         0.350         0.024         0.161
  sub4                        25.772        51.904         0.510         0.031         0.245
  sub5                        25.778        50.682         0.460         0.035         0.223
  sub7                         5.751        11.638         0.108         0.007         0.052
  sub8                         8.581        17.755         0.171         0.010         0.082
  sub9                         7.353        15.005         0.142         0.009         0.068
  sub10                       21.202        42.223         0.389         0.028         0.188
  sub11                       20.657        41.614         0.386         0.026         0.187
  sub12                       17.724        35.094         0.321         0.024         0.155
  sub14                       15.732        31.800         0.298         0.020         0.144
  sub15                       20.231        39.321         0.389         0.028         0.182
  sub16                       13.129        25.518         0.249         0.019         0.117
  sub17                       12.049        23.208         0.222         0.017         0.105
  sub22                       62.582       119.432         1.186         0.090         0.554
  sub23                       36.683        72.439         0.776         0.051         0.357
  sub60                      243.520       456.962         4.842         0.298         2.321
  sub61                      302.151       564.434         5.627         0.386         2.710
  sub62                      313.722       596.076         6.119         0.388         2.938
  sub63                      223.275       410.850         4.468         0.314         2.075
  sub64                      305.877       553.773         5.626         0.410         2.687
  sub65                      313.037       569.066         5.795         0.415         2.772
  sub66                      176.068       321.340         3.608         0.236         1.687
  sub67                      466.222       877.505         8.365         0.616         4.045
  sub68                      332.037       626.413         6.347         0.429         3.034
  sub69                      298.258       568.561         5.590         0.393         2.674
  sub70                      502.897       962.303        10.037         0.699         4.710
  sub71                      206.745       396.330         4.242         0.246         2.030
  sub72                      164.385       293.107         3.069         0.210         1.476
  1                          349.075       671.606         7.102         0.495         3.297
  2                           42.749        75.577         1.214         0.073         0.518
  ------------------------------------------------------------------------------------------
  System                    4570.974      8595.115        88.408         6.057        41.983
  
  
  ******************
  Node Depth Summary
  ******************
  
  ---------------------------------------------------------------------------------
                                 Average  Maximum  Maximum  Time of Max    Reported
                                   Depth    Depth      HGL   Occurrence   Max Depth
  Node                 Type       Meters   Meters   Meters  days hr:min      Meters
  ---------------------------------------------------------------------------------
  WS02001211           JUNCTION     0.77     0.85     5.68     0  03:07        0.85
  WS02001212           JUNCTION     0.48     0.58     5.64     0  03:07        0.58
  WS02001213           JUNCTION     0.71     0.85     5.61     0  03:06        0.85
  WS02003069           JUNCTION     0.50     0.72     5.30     0  03:06        0.72
  WS02003072           JUNCTION     0.57     0.76     5.13     0  03:06        0.76
  WS02003073           JUNCTION     0.34     0.48     4.54     0  03:07        0.48
  WS02003060           JUNCTION     0.45     0.63     5.56     0  03:05        0.63
  WS02003066           JUNCTION     0.23     0.39     5.94     0  03:03        0.39
  WS02003059           JUNCTION     0.76     0.91     5.59     0  03:06        0.91
  WS02003067           JUNCTION     0.57     0.82     6.14     0  03:03        0.82
  WS02004401           JUNCTION     0.70     1.26     7.26     0  03:00        1.24
  WS02004402           JUNCTION     0.73     1.25     7.21     0  03:00        1.22
  WS02004403           JUNCTION     0.75     1.22     7.15     0  03:00        1.20
  WS02004404           JUNCTION     0.82     1.27     7.12     0  02:59        1.24
  WS02004406           JUNCTION     0.82     1.18     7.01     0  02:59        1.16
  WS02004409           JUNCTION     0.51     0.96     6.73     0  03:03        0.96
  WS02004410           JUNCTION     0.52     0.95     6.67     0  03:03        0.95
  WS02004411           JUNCTION     0.54     0.93     6.61     0  03:03        0.93
  WS02004412           JUNCTION     0.55     0.90     6.54     0  03:03        0.90
  WS02004413           JUNCTION     0.70     1.02     6.49     0  03:04        1.02
  WS02004405           JUNCTION     0.81     1.24     7.09     0  02:59        1.21
  WS02006109           JUNCTION     0.80     1.65     8.27     0  03:00        1.64
  WS02006110           JUNCTION     0.78     1.47     8.05     0  03:00        1.44
  WS02006111           JUNCTION     0.24     0.93     7.63     0  02:59        0.89
  WS02006112           JUNCTION     0.88     1.60     7.48     0  03:00        1.55
  WS02006113           JUNCTION     0.36     0.95     7.85     0  03:00        0.92
  WS02006115           JUNCTION     0.60     1.26     7.40     0  03:00        1.22
  WS02006116           JUNCTION     0.68     1.30     7.34     0  03:00        1.26
  WS02006230           JUNCTION     0.80     1.87     8.62     0  03:00        1.86
  WS02006231           JUNCTION     0.55     1.52     8.64     0  03:00        1.51
  WS02006232           JUNCTION     0.68     1.63     8.67     0  03:00        1.61
  WS02006234           JUNCTION     0.61     1.53     8.69     0  03:00        1.52
  WS02006235           JUNCTION     0.65     1.56     8.72     0  03:00        1.52
  WS02006238           JUNCTION     0.67     1.57     8.72     0  03:00        1.56
  WS02006240           JUNCTION     0.56     1.41     8.71     0  03:00        1.40
  WS02006242           JUNCTION     0.61     1.44     8.70     0  03:00        1.42
  WS02006243           JUNCTION     0.49     1.28     8.70     0  03:00        1.27
  WS02006245           JUNCTION     0.46     1.22     8.70     0  03:00        1.20
  WS02006247           JUNCTION     0.46     1.20     8.70     0  03:00        1.19
  WS02006248           JUNCTION     0.40     1.10     8.69     0  02:59        1.10
  WS02006249           JUNCTION     0.42     1.09     8.69     0  02:57        1.09
  WS02006239           JUNCTION     0.62     1.50     8.71     0  03:00        1.49
  WS02006251           JUNCTION     0.39     1.50     9.17     0  02:57        1.28
  WS02006252           JUNCTION     0.24     0.99     9.23     0  04:01        0.73
  WS02006253           JUNCTION     0.42     1.59     9.23     0  04:01        1.38
  WS02006256           JUNCTION     1.75     2.35     9.28     0  00:00        2.35
  WS02004138           JUNCTION     0.19     0.20     7.45     0  00:00        0.19
  WS02004139           JUNCTION     0.71     0.79     5.70     0  03:08        0.79
  WS02004407           JUNCTION     0.23     0.40     6.71     0  03:01        0.40
  WS02006228           JUNCTION     0.82     1.82     8.47     0  03:00        1.81
  WS02006229           JUNCTION     0.80     1.89     8.59     0  03:02        1.89
  WS02006280           JUNCTION     0.08     0.30     8.57     0  02:59        0.29
  WS02006284           JUNCTION     0.38     0.65     9.04     0  03:02        0.64
  WS02006287           JUNCTION     0.11     0.39     9.34     0  03:02        0.39
  WSF200               JUNCTION     0.22     0.44     5.67     0  03:04        0.44
  HS02004901           JUNCTION     0.14     0.38    10.20     0  03:01        0.37
  HS02004881           JUNCTION     0.01     0.05     9.08     0  02:58        0.05
  HS02004876           JUNCTION     0.05     0.16     9.19     0  03:01        0.16
  HS02004870           JUNCTION     0.02     0.09     9.38     0  03:01        0.09
  HS02004862           JUNCTION     0.02     0.11     9.49     0  03:01        0.11
  HS02004856           JUNCTION     0.08     0.15     9.58     0  03:01        0.15
  HS02004852           JUNCTION     0.01     0.07     9.59     0  03:02        0.07
  HS02004848           JUNCTION     0.01     0.07     9.67     0  03:01        0.07
  HS02004842           JUNCTION     0.34     0.40     9.67     0  03:01        0.40
  HS02004837           JUNCTION     0.03     0.09     9.67     0  03:01        0.09
  HS02004830           JUNCTION     0.04     0.10     9.57     0  03:01        0.10
  HS02004824           JUNCTION     0.03     0.13     9.53     0  03:02        0.13
  HS02004817           JUNCTION     0.45     0.69     9.54     0  03:02        0.69
  HS02004807           JUNCTION     0.14     0.36     9.53     0  03:02        0.36
  HS02004802           JUNCTION     0.17     0.39     9.52     0  03:02        0.39
  HS02004799           JUNCTION     0.14     0.46     9.68     0  03:01        0.46
  HS02004792           JUNCTION     0.04     0.22     9.74     0  03:01        0.21
  HS02004788           JUNCTION     0.03     0.16    10.05     0  03:02        0.16
  HS02004785           JUNCTION     0.06     0.25    10.15     0  03:02        0.25
  HS02004777           JUNCTION     0.16     0.39    10.19     0  03:01        0.39
  HS02004770           JUNCTION     0.13     0.37    10.20     0  03:01        0.36
  HS02004480           JUNCTION     0.10     0.38     9.62     0  03:01        0.38
  HS02004479           JUNCTION     0.13     0.42     9.62     0  03:01        0.42
  HS02004478           JUNCTION     0.07     0.28     9.50     0  03:01        0.28
  YS02001745           JUNCTION     0.72     0.95     8.47     0  03:01        0.95
  YS02001748           JUNCTION     1.11     1.69     8.76     0  02:32        1.38
  YS02001751           JUNCTION     1.29     1.58     8.46     0  03:01        1.57
  YS02001754           JUNCTION     1.54     1.84     8.45     0  03:00        1.83
  YS02001762           JUNCTION     1.74     2.05     8.45     0  02:59        2.04
  YS02001765           JUNCTION     1.69     1.99     8.44     0  02:59        1.99
  YS02001767           JUNCTION     1.66     1.95     8.44     0  02:59        1.95
  YS02001770           JUNCTION     1.65     1.94     8.43     0  03:01        1.93
  YS02001774           JUNCTION     1.72     1.99     8.41     0  03:01        1.98
  YS02001779           JUNCTION     1.46     1.68     8.37     0  02:41        1.68
  YS02001882           JUNCTION     0.63     1.66     8.37     0  02:46        1.63
  YS02001884           JUNCTION     0.73     1.75     8.36     0  02:46        1.73
  YS02001759           JUNCTION     1.77     2.08     8.45     0  02:59        2.08
  YS02001887           JUNCTION     0.81     1.82     8.35     0  03:00        1.81
  YS02001890           JUNCTION     0.84     1.81     8.32     0  02:48        1.81
  YS02001898           JUNCTION     0.60     1.57     8.30     0  02:48        1.56
  YS02001901           JUNCTION     0.72     1.68     8.29     0  02:48        1.67
  YS02001904           JUNCTION     0.70     1.64     8.27     0  02:48        1.63
  YS02001907           JUNCTION     1.03     1.96     8.25     0  02:48        1.96
  YS02001910           JUNCTION     0.82     1.83     8.33     0  02:49        1.78
  YS02001915           JUNCTION     0.62     1.67     8.39     0  02:49        1.61
  YS02001918           JUNCTION     0.35     1.42     8.48     0  02:49        1.30
  YS02001619           JUNCTION     1.25     1.50     8.43     0  02:33        1.49
  YS02001629           JUNCTION     1.60     1.85     8.40     0  07:12        1.84
  YS02001641           JUNCTION     1.70     1.94     8.38     0  07:22        1.93
  YS02001644           JUNCTION     1.70     1.92     8.35     0  02:39        1.92
  YS02001652           JUNCTION     1.55     2.08     8.68     0  04:14        1.90
  YS02001655           JUNCTION     1.32     2.08     8.93     0  04:14        1.72
  YS02001920           JUNCTION     0.45     1.52     8.53     0  02:49        1.39
  YS02001923           JUNCTION     0.27     1.30     8.56     0  02:49        1.16
  YS02001926           JUNCTION     0.32     1.45     8.89     0  02:49        0.96
  YS02001929           JUNCTION     0.19     0.85     8.55     0  02:49        0.72
  YS02001658           JUNCTION     1.05     2.06     9.20     0  04:14        1.53
  YS02001661           JUNCTION     0.83     1.96     9.37     0  04:14        1.52
  YS02001664           JUNCTION     0.37     0.58     8.51     0  02:42        0.57
  YS02001622           JUNCTION     1.27     1.51     8.42     0  02:33        1.51
  YS02001633           JUNCTION     1.69     1.95     8.40     0  03:00        1.94
  YS02001649           JUNCTION     1.75     2.05     8.44     0  02:43        2.05
  YS02001757           JUNCTION     1.87     2.18     8.44     0  02:56        2.17
  YS02001895           JUNCTION     0.60     1.57     8.31     0  02:57        1.56
  YS02001625           JUNCTION     1.56     1.78     8.38     0  02:33        1.78
  YS02163301           JUNCTION     1.63     1.89     8.40     0  07:12        1.88
  YS02163601           JUNCTION     1.74     1.99     8.39     0  07:12        1.98
  YS02164001           JUNCTION     1.68     1.93     8.39     0  07:12        1.91
  YS02001647           JUNCTION     1.53     1.80     8.41     0  02:47        1.79
  YSB1154              JUNCTION     0.27     0.57     9.62     0  03:01        0.57
  YSB6556              JUNCTION     0.17     0.45     9.62     0  03:02        0.45
  YSB1174              JUNCTION     0.22     0.52     9.62     0  03:01        0.51
  YSB1171              JUNCTION     0.42     0.72     9.62     0  03:01        0.72
  YS02006553           JUNCTION     1.03     1.97     8.26     0  03:00        1.97
  YS02006561           JUNCTION     0.36     1.28     7.94     0  02:46        1.08
  YS02006556           JUNCTION     0.99     1.93     8.24     0  02:59        1.93
  YS02006558           JUNCTION     1.03     1.98     8.25     0  03:00        1.97
  YS02001783           JUNCTION     0.60     1.64     7.78     0  02:46        1.47
  YS02001784           JUNCTION     0.62     1.65     7.72     0  02:46        1.41
  YS02001786           JUNCTION     0.55     1.78     7.81     0  02:46        1.26
  YS02001788           JUNCTION     0.47     1.76     7.74     0  02:46        1.13
  YS02001790           JUNCTION     0.60     1.96     7.60     0  04:46        1.29
  YS02001791           JUNCTION     0.56     2.54     8.01     0  04:45        1.27
  YS02001793           JUNCTION     0.79     2.55     7.38     0  04:43        1.80
  WSC                  OUTFALL      0.34     0.48     1.15     0  03:07        0.48
  JK-storage           STORAGE      3.09     5.80     6.60     0  02:46        5.80
  CC-storage           STORAGE      1.13     1.42     8.42     0  03:13        1.42
  XR-storage           STORAGE      6.49     7.72     5.72     0  02:59        7.72
  
  
  *******************
  Node Inflow Summary
  *******************
  
  -------------------------------------------------------------------------------------------------
                                  Maximum  Maximum                  Lateral       Total        Flow
                                  Lateral    Total  Time of Max      Inflow      Inflow     Balance
                                   Inflow   Inflow   Occurrence      Volume      Volume       Error
  Node                 Type           LPS      LPS  days hr:min    10^6 ltr    10^6 ltr     Percent
  -------------------------------------------------------------------------------------------------
  WS02001211           JUNCTION      7.35   390.29     0  03:16       0.207        10.1       0.399
  WS02001212           JUNCTION      0.00   393.23     0  03:16           0          10       0.238
  WS02001213           JUNCTION      0.00   395.75     0  03:16           0          10       0.281
  WS02003069           JUNCTION      0.32  1320.26     0  03:06     0.00902        18.5       0.179
  WS02003072           JUNCTION      0.00  1320.04     0  03:06           0        18.5       0.217
  WS02003073           JUNCTION      1.82  1322.15     0  03:07      0.0514        18.5       0.248
  WS02003060           JUNCTION     16.53  1320.08     0  03:05       0.466        18.5       0.169
  WS02003066           JUNCTION      0.00   937.71     0  03:04           0         8.1       0.051
  WS02003059           JUNCTION      0.00   398.65     0  03:15           0        9.99       0.393
  WS02003067           JUNCTION      0.00   937.57     0  03:04           0        8.11       0.109
  WS02004401           JUNCTION      0.00   939.83     0  03:01           0        8.33       0.236
  WS02004402           JUNCTION      0.00   940.18     0  03:01           0        8.31       0.225
  WS02004403           JUNCTION      0.00   940.38     0  03:01           0        8.29       0.205
  WS02004404           JUNCTION      0.16   941.13     0  03:01     0.00457        8.28       0.156
  WS02004406           JUNCTION      0.00   941.64     0  03:01           0        8.25       0.382
  WS02004409           JUNCTION      0.00   939.85     0  03:01           0        8.21       0.180
  WS02004410           JUNCTION      0.00   937.81     0  03:03           0        8.19       0.206
  WS02004411           JUNCTION      0.00   937.29     0  03:03           0        8.18       0.213
  WS02004412           JUNCTION      0.00   937.50     0  03:04           0        8.16       0.233
  WS02004413           JUNCTION      0.00   937.51     0  03:04           0        8.14       0.350
  WS02004405           JUNCTION      0.04   941.70     0  03:01     0.00107        8.27       0.237
  WS02006109           JUNCTION      1.23   913.57     0  03:02      0.0347        8.35       0.216
  WS02006110           JUNCTION      0.00   913.57     0  03:02           0        8.33       0.218
  WS02006111           JUNCTION      0.00   913.90     0  03:02           0        8.31       0.040
  WS02006112           JUNCTION     30.67   938.44     0  03:01      0.0853        8.39       0.305
  WS02006113           JUNCTION      0.00   913.58     0  03:02           0        8.32       0.101
  WS02006115           JUNCTION      0.00   938.63     0  03:01           0        8.36       0.214
  WS02006116           JUNCTION      0.00   939.54     0  03:01           0        8.35       0.212
  WS02006230           JUNCTION     10.28   533.88     0  07:10        0.29        5.93       0.215
  WS02006231           JUNCTION      0.00   523.16     0  07:10           0        5.64       0.136
  WS02006232           JUNCTION      0.00   523.36     0  07:10           0        5.66       0.280
  WS02006234           JUNCTION      0.00   523.10     0  07:10           0        5.67       0.089
  WS02006235           JUNCTION      0.00   524.10     0  07:10           0        5.74       0.195
  WS02006238           JUNCTION      0.00   333.75     0  04:53           0        2.38       0.224
  WS02006240           JUNCTION      0.00   344.58     0  04:52           0        2.33       0.355
  WS02006242           JUNCTION      0.00   353.51     0  04:52           0        2.32       0.402
  WS02006243           JUNCTION      0.00   361.85     0  04:51           0        2.31       0.050
  WS02006245           JUNCTION      0.00   367.16     0  04:51           0        2.31       0.291
  WS02006247           JUNCTION      0.00   371.69     0  04:51           0        2.31       0.091
  WS02006248           JUNCTION      0.00   376.77     0  04:51           0        2.31      -0.041
  WS02006249           JUNCTION      0.00   436.72     0  04:01           0        2.52       0.086
  WS02006239           JUNCTION      0.00   336.88     0  04:53           0        2.35       0.247
  WS02006251           JUNCTION      0.08   430.09     0  04:01     0.00217        2.55      -0.028
  WS02006252           JUNCTION      0.00   400.00     0  04:00           0        2.04       0.009
  WS02006253           JUNCTION      3.75   160.77     0  02:57      0.0103       0.507      -0.137
  WS02006256           JUNCTION      0.00   983.00     0  00:00           0        9.48      -0.004
  WS02004138           JUNCTION      0.00   380.00     0  00:00           0        9.92       0.063
  WS02004139           JUNCTION      0.32   396.51     0  00:00     0.00905        9.92       0.455
  WS02004407           JUNCTION      0.00   941.83     0  03:01           0        8.22       0.081
  WS02006228           JUNCTION      0.00   912.33     0  03:02           0        8.33       0.170
  WS02006229           JUNCTION      0.00   935.73     0  02:59           0        8.35       0.154
  WS02006280           JUNCTION      0.00   680.11     0  03:02           0        2.43       0.014
  WS02006284           JUNCTION      0.10   678.98     0  03:02      0.0027        2.43       0.044
  WS02006287           JUNCTION      0.00   677.63     0  03:02           0        2.43       0.032
  WSF200               JUNCTION      0.00   937.82     0  03:04           0         8.1       0.045
  HS02004901           JUNCTION     37.63    37.63     0  03:01       0.103       0.103       1.743
  HS02004881           JUNCTION     14.26   140.52     0  03:01      0.0422       0.463       0.093
  HS02004876           JUNCTION     25.66   127.63     0  03:01      0.0814       0.422       0.129
  HS02004870           JUNCTION     26.26   103.57     0  03:01      0.0799        0.34       0.036
  HS02004862           JUNCTION     25.49    79.36     0  03:01      0.0888       0.261       0.068
  HS02004856           JUNCTION     19.64    55.39     0  03:01      0.0601       0.173       0.841
  HS02004852           JUNCTION      0.00    37.84     0  03:01           0       0.113       0.053
  HS02004848           JUNCTION     55.75    55.75     0  03:01       0.197       0.197       0.030
  HS02004842           JUNCTION      0.00    16.84     0  03:01           0       0.097      15.491
  HS02004837           JUNCTION     50.35    65.70     0  03:01       0.318       0.402       0.205
  HS02004830           JUNCTION      0.15    64.79     0  03:01     0.00423       0.392       0.316
  HS02004824           JUNCTION     65.57   128.42     0  03:01       0.251       0.642       0.086
  HS02004817           JUNCTION      0.60   124.47     0  03:01      0.0169       0.658       2.599
  HS02004807           JUNCTION     48.45   165.84     0  03:01       0.147       0.788       0.555
  HS02004802           JUNCTION      0.00   165.32     0  03:04           0       0.785       0.508
  HS02004799           JUNCTION     38.67   445.99     0  03:01       0.119        1.42       0.191
  HS02004792           JUNCTION    184.82   411.77     0  03:01        0.54         1.3       0.034
  HS02004788           JUNCTION     58.68   233.42     0  03:01       0.219       0.758       0.054
  HS02004785           JUNCTION      0.15   182.17     0  03:01     0.00423        0.54       0.093
  HS02004777           JUNCTION      0.03   184.97     0  03:01    0.000846       0.541       0.972
  HS02004770           JUNCTION    154.22   188.92     0  03:01       0.441       0.542       0.579
  HS02004480           JUNCTION      0.00   517.17     0  03:01           0        1.66       0.068
  HS02004479           JUNCTION      0.00    75.42     0  03:02           0       0.258       0.287
  HS02004478           JUNCTION      0.00   677.06     0  03:02           0        2.43       0.010
  YS02001745           JUNCTION    438.14   438.14     0  03:01        3.01        3.02       0.376
  YS02001748           JUNCTION      0.04   569.74     0  02:32     0.00127        3.01       0.731
  YS02001751           JUNCTION      0.01   443.71     0  03:01     0.00031        2.98       0.798
  YS02001754           JUNCTION      0.26   443.75     0  03:01     0.00733        2.96       0.854
  YS02001762           JUNCTION      0.00   315.72     0  02:43           0        2.09       1.026
  YS02001765           JUNCTION      0.00   316.18     0  02:43           0        2.09       1.191
  YS02001767           JUNCTION      0.54   316.19     0  02:43      0.0151        2.12       1.724
  YS02001770           JUNCTION    552.50   673.90     0  03:04        3.37        3.97       0.814
  YS02001774           JUNCTION      0.00   674.58     0  03:02           0        2.45       1.051
  YS02001779           JUNCTION      0.01   674.55     0  03:04    0.000141        2.42       0.648
  YS02001882           JUNCTION      0.00    12.83     0  02:43           0      0.0196      12.159
  YS02001884           JUNCTION      0.00    19.79     0  02:35           0      0.0555      12.477
  YS02001759           JUNCTION    536.49   620.96     0  02:43        3.11        4.56       0.508
  YS02001887           JUNCTION    679.97   679.97     0  03:01        3.56        3.59       0.238
  YS02001890           JUNCTION      0.00   679.97     0  03:01           0        3.55       0.258
  YS02001898           JUNCTION      0.00   517.84     0  03:01           0        3.45       0.090
  YS02001901           JUNCTION      0.00   517.94     0  03:02           0        3.45       0.198
  YS02001904           JUNCTION      0.00   517.59     0  02:58           0        3.44       0.177
  YS02001907           JUNCTION      0.00  1106.53     0  03:01           0        7.77       0.317
  YS02001910           JUNCTION      0.00   596.87     0  02:50           0        4.34       0.275
  YS02001915           JUNCTION    389.26   596.30     0  02:50        2.52        4.37       0.134
  YS02001918           JUNCTION      0.00   325.36     0  02:50           0        1.88       0.076
  YS02001619           JUNCTION    380.66   380.66     0  03:01        2.51        2.51       0.496
  YS02001629           JUNCTION      0.00   197.40     0  02:39           0        1.59       1.864
  YS02001641           JUNCTION      0.00   414.31     0  02:39           0        4.45       0.482
  YS02001644           JUNCTION    416.76  1524.07     0  03:01         2.9          12       0.222
  YS02001652           JUNCTION      0.00   500.19     0  03:01           0        2.62       0.909
  YS02001655           JUNCTION      0.15   499.97     0  03:01     0.00434        2.65       0.925
  YS02001920           JUNCTION      2.87   324.87     0  02:50      0.0809        1.87       0.150
  YS02001923           JUNCTION      0.04   320.16     0  02:50     0.00106        1.78       0.035
  YS02001926           JUNCTION      0.05   311.39     0  02:48     0.00147        1.76       0.174
  YS02001929           JUNCTION    189.18   190.05     0  02:47        1.75        1.75       0.037
  YS02001658           JUNCTION      0.00   629.77     0  02:29           0        2.68       0.771
  YS02001661           JUNCTION      0.00   682.56     0  02:43           0        2.92       0.071
  YS02001664           JUNCTION    492.63   492.63     0  03:01        2.67        2.91       0.220
  YS02001622           JUNCTION      0.00   381.13     0  03:01           0         2.5       1.289
  YS02001633           JUNCTION    423.29   423.29     0  03:01        2.99        4.52       0.722
  YS02001649           JUNCTION      0.00   873.41     0  02:40           0        6.67       0.562
  YS02001757           JUNCTION      0.00  1678.40     0  02:40           0        8.94       1.039
  YS02001895           JUNCTION      0.00   517.89     0  02:58           0        3.45       0.146
  YS02001625           JUNCTION      0.00   407.82     0  03:01           0        2.47       1.599
  YS02163301           JUNCTION      0.00   203.46     0  02:32           0        1.57       1.569
  YS02163601           JUNCTION      0.11   415.04     0  02:39      0.0031        4.48       0.674
  YS02164001           JUNCTION      0.00   415.18     0  02:39           0        4.46       0.465
  YS02001647           JUNCTION      0.00   729.18     0  03:10           0        5.99       0.477
  YSB1154              JUNCTION     44.76    44.76     0  03:01       0.144       0.144       1.019
  YSB6556              JUNCTION      0.00    43.29     0  03:01           0       0.145       0.869
  YSB1174              JUNCTION     38.10    38.10     0  03:01       0.106       0.107       1.223
  YSB1171              JUNCTION      0.00    76.90     0  03:01           0       0.257       2.526
  YS02006553           JUNCTION      0.00   709.24     0  03:46           0        6.71       0.232
  YS02006561           JUNCTION      0.00  1015.81     0  02:46           0        9.94       0.006
  YS02006556           JUNCTION      0.00   709.41     0  03:46           0        6.71       0.169
  YS02006558           JUNCTION    587.14  1015.40     0  02:46        3.28        9.96       0.050
  YS02001783           JUNCTION      0.00  1002.93     0  02:45           0        9.93       0.024
  YS02001784           JUNCTION      1.06  1004.31     0  02:45      0.0299        9.96       0.037
  YS02001786           JUNCTION      0.06  1003.64     0  02:45     0.00159        9.96       0.033
  YS02001788           JUNCTION      0.07   989.25     0  02:45       0.002        9.96       0.021
  YS02001790           JUNCTION      0.15   982.38     0  03:25     0.00437        9.96       0.016
  YS02001791           JUNCTION      0.00  1022.11     0  02:44           0        9.96       0.005
  YS02001793           JUNCTION      0.00   982.38     0  03:25           0        9.96      -0.012
  WSC                  OUTFALL       0.00  1322.50     0  03:07           0        18.4       0.000
  JK-storage           STORAGE       0.00   982.67     0  03:25           0        10.1      -8.719
  CC-storage           STORAGE       0.00  1677.42     0  02:40           0        6.03       1.087
  XR-storage           STORAGE    1024.87  1024.87     0  03:01        12.7        13.3      -0.003
  
  
  **********************
  Node Surcharge Summary
  **********************
  
  Surcharging occurs when water rises above the top of the highest conduit.
  ---------------------------------------------------------------------
                                               Max. Height   Min. Depth
                                   Hours       Above Crown    Below Rim
  Node                 Type      Surcharged         Meters       Meters
  ---------------------------------------------------------------------
  WS02004401           JUNCTION        0.41          0.259        1.401
  WS02004402           JUNCTION        0.44          0.247        1.493
  WS02004403           JUNCTION        0.45          0.225        1.805
  WS02004404           JUNCTION        0.86          0.268        2.512
  WS02004406           JUNCTION        0.75          0.179        2.271
  WS02004413           JUNCTION        0.15          0.023        2.177
  WS02004405           JUNCTION        0.80          0.242        2.558
  WS02006109           JUNCTION        2.72          0.833        0.987
  WS02006110           JUNCTION        1.49          0.556        1.294
  WS02006111           JUNCTION        0.11          0.118        1.752
  WS02006112           JUNCTION        1.74          0.598        1.082
  WS02006113           JUNCTION        0.12          0.153        1.777
  WS02006115           JUNCTION        0.30          0.249        2.001
  WS02006116           JUNCTION        0.32          0.235        2.055
  WS02006230           JUNCTION        1.14          0.795        0.775
  WS02006231           JUNCTION        1.38          0.812        0.718
  WS02006232           JUNCTION        2.66          0.932        0.548
  WS02006234           JUNCTION        1.90          0.814        0.426
  WS02006235           JUNCTION        2.19          0.849        0.441
  WS02006238           JUNCTION        2.31          0.852        0.578
  WS02006240           JUNCTION        1.44          0.704        0.686
  WS02006242           JUNCTION        1.50          0.705        0.115
  WS02006243           JUNCTION        1.11          0.569        0.201
  WS02006245           JUNCTION        0.99          0.505        0.345
  WS02006247           JUNCTION        0.99          0.486        0.274
  WS02006248           JUNCTION        0.88          0.380        0.000
  WS02006249           JUNCTION        0.90          0.390        0.000
  WS02006239           JUNCTION        1.71          0.763        0.527
  WS02006251           JUNCTION        0.55          0.474        0.706
  WS02006252           JUNCTION        1.10          0.586        0.514
  WS02006253           JUNCTION        0.57          0.549        1.931
  WS02006256           JUNCTION        6.32          2.050        0.000
  WS02006228           JUNCTION        2.69          0.991        1.209
  YS02001748           JUNCTION        5.22          0.607        0.583
  YS02001751           JUNCTION        5.38          0.582        0.618
  YS02001754           JUNCTION        5.58          0.789        0.361
  YS02001762           JUNCTION        5.75          1.048        0.102
  YS02001765           JUNCTION        5.72          0.994        0.106
  YS02001767           JUNCTION        5.70          0.952        0.078
  YS02001770           JUNCTION        5.68          0.910        0.010
  YS02001774           JUNCTION        5.74          0.989        0.061
  YS02001779           JUNCTION        5.56          0.680        0.000
  YS02001882           JUNCTION        1.07          0.657        0.173
  YS02001884           JUNCTION        1.09          0.687        0.183
  YS02001759           JUNCTION        5.78          1.084        0.126
  YS02001887           JUNCTION        1.17          0.766        0.184
  YS02001890           JUNCTION        1.20          0.760        0.000
  YS02001898           JUNCTION        1.02          0.539        0.201
  YS02001901           JUNCTION        1.13          0.681        0.189
  YS02001904           JUNCTION        1.11          0.637        0.213
  YS02001907           JUNCTION        1.91          0.950        0.000
  YS02001910           JUNCTION        1.24          0.827        0.273
  YS02001915           JUNCTION        1.05          0.668        0.332
  YS02001918           JUNCTION        0.88          0.418        0.392
  YS02001619           JUNCTION        5.37          0.501        0.109
  YS02001629           JUNCTION        5.38          0.470        0.000
  YS02001641           JUNCTION        5.73          0.939        0.161
  YS02001644           JUNCTION        5.73          0.920        0.000
  YS02001652           JUNCTION        5.61          1.053        0.077
  YS02001655           JUNCTION        5.39          1.081        0.119
  YS02001920           JUNCTION        0.90          0.521        0.619
  YS02001923           JUNCTION        0.01          0.094        0.726
  YS02001926           JUNCTION        0.01          0.446        0.454
  YS02001658           JUNCTION        5.25          1.057        0.243
  YS02001661           JUNCTION        0.13          0.892        0.498
  YS02001622           JUNCTION        5.41          0.514        0.106
  YS02001633           JUNCTION        5.71          0.928        0.132
  YS02001649           JUNCTION        5.76          1.050        0.000
  YS02001757           JUNCTION        5.86          1.177        0.033
  YS02001895           JUNCTION        1.03          0.567        0.183
  YS02001625           JUNCTION        5.64          0.780        0.000
  YS02163301           JUNCTION        5.69          0.888        0.142
  YS02163601           JUNCTION        5.75          0.993        0.087
  YS02164001           JUNCTION        5.72          0.929        0.171
  YS02001647           JUNCTION        5.62          0.801        0.099
  YS02006553           JUNCTION        1.97          0.972        0.218
  YS02006561           JUNCTION        0.92          0.476        0.674
  YS02006556           JUNCTION        1.47          0.893        0.457
  YS02006558           JUNCTION        1.43          0.879        0.521
  YS02001783           JUNCTION        1.19          0.844        0.756
  YS02001784           JUNCTION        1.14          0.850        0.640
  YS02001786           JUNCTION        1.02          0.976        0.454
  YS02001788           JUNCTION        0.97          0.964        0.516
  YS02001790           JUNCTION        2.09          1.157        0.000
  YS02001791           JUNCTION        2.25          1.742        0.178
  YS02001793           JUNCTION        2.61          1.550        1.050
  
  
  *********************
  Node Flooding Summary
  *********************
  
  Flooding refers to all water that overflows a node, whether it ponds or not.
  --------------------------------------------------------------------------
                                                             Total   Maximum
                                 Maximum   Time of Max       Flood    Ponded
                        Hours       Rate    Occurrence      Volume     Depth
  Node                 Flooded       LPS   days hr:min    10^6 ltr    Meters
  --------------------------------------------------------------------------
  WS02006248              0.08     44.31      0  04:00       0.004     0.000
  WS02006249              0.52    255.23      0  03:03       0.205     0.000
  WS02006256              3.48    978.40      0  00:00       6.075     0.000
  YS02001779              3.01    674.53      0  03:04       2.400     0.000
  YS02001890              0.35    163.89      0  03:01       0.085     0.000
  YS02001907              0.76    712.36      0  03:01       1.050     0.000
  YS02001629              0.01      1.26      0  07:12       0.000     0.000
  YS02001644              4.89   1523.83      0  03:01      10.704     0.000
  YS02001649              0.02     30.25      0  02:43       0.001     0.000
  YS02001625              1.42    407.77      0  03:01       0.855     0.000
  YS02001790              0.01    153.82      0  04:46       0.000     0.000
  JK-storage              1.18    964.89      0  02:50       1.593     0.000
  XR-storage              3.46    644.75      0  03:01       2.615     0.000
  
  
  **********************
  Storage Volume Summary
  **********************
  
  --------------------------------------------------------------------------------------------------
                         Average     Avg  Evap Exfil       Maximum     Max    Time of Max    Maximum
                          Volume    Pcnt  Pcnt  Pcnt        Volume    Pcnt     Occurrence    Outflow
  Storage Unit           1000 m3    Full  Loss  Loss       1000 m3    Full    days hr:min        LPS
  --------------------------------------------------------------------------------------------------
  JK-storage               0.155      53     0     0         0.291     100       0  02:46     983.00
  CC-storage               3.146      20     0     0         3.966      25       0  03:13     400.00
  XR-storage               0.779      84     0     0         0.926     100       0  02:59     380.00
  
  
  ***********************
  Outfall Loading Summary
  ***********************
  
  ---------------------------------------------------------------------------------------------------------------------------------
                         Flow       Avg       Max       Total         Total         Total         Total         Total         Total
                         Freq      Flow      Flow      Volume           COD            SS            TN            TP         NH4-N
  Outfall Node           Pcnt       LPS       LPS    10^6 ltr            kg            kg            kg            kg            kg
  ---------------------------------------------------------------------------------------------------------------------------------
  WSC                   99.98    752.29   1322.50      18.425      2292.146      3958.779       146.838        17.291        88.869
  ---------------------------------------------------------------------------------------------------------------------------------
  System                99.98    752.29   1322.50      18.425      2292.146      3958.779       146.838        17.291        88.869
  
  
  ********************
  Link Flow Summary
  ********************
  
  -----------------------------------------------------------------------------
                                 Maximum  Time of Max   Maximum    Max/    Max/
                                  |Flow|   Occurrence   |Veloc|    Full    Full
  Link                 Type          LPS  days hr:min     m/sec    Flow   Depth
  -----------------------------------------------------------------------------
  WS02003066WSF200     CONDUIT    937.82     0  03:04      3.00    0.16    0.32
  WS02006287WS02006284 CONDUIT    678.88     0  03:02      2.38    0.31    0.39
  WS02006284WS02006280 CONDUIT    680.11     0  03:02      2.62    0.28    0.37
  WS02006280WS02006229 CONDUIT    680.26     0  03:02      3.98    0.15    0.50
  WS02006229WS02006228 CONDUIT    912.33     0  03:02      1.82    3.02    1.00
  WS02006256WS02006235 CONDUIT    288.60     0  00:00      4.23    3.05    1.00
  WS02006253WS02006251 CONDUIT    152.64     0  02:58      0.53    0.46    1.00
  WS02006252WS02006251 CONDUIT    405.33     0  04:01      3.23    1.49    1.00
  WS02006251WS02006249 CONDUIT    436.72     0  04:01      1.13    1.26    1.00
  WS02006249WS02006248 CONDUIT    376.77     0  04:51      1.19    2.06    1.00
  WS02006248WS02006247 CONDUIT    371.69     0  04:51      1.16    0.81    1.00
  WS02006247WS02006245 CONDUIT    367.16     0  04:51      1.14    2.91    1.00
  WS02006245WS02006243 CONDUIT    361.85     0  04:51      1.17    1.07    1.00
  WS02006243WS02006242 CONDUIT    353.51     0  04:52      1.06    0.76    1.00
  WS02006242WS02006240 CONDUIT    344.58     0  04:52      1.00    1.37    1.00
  WS02006240WS02006239 CONDUIT    336.88     0  04:53      1.03    1.06    1.00
  WS02006239WS02006238 CONDUIT    333.75     0  04:53      0.95    1.07    1.00
  WS02006238WS02006235 CONDUIT    333.11     0  04:53      1.46    0.74    1.00
  WS02006235WS02006234 CONDUIT    523.10     0  07:10      1.36    5.52    1.00
  WS02006234WS02006232 CONDUIT    523.36     0  07:10      1.39    1.06    1.00
  WS02006232WS02006231 CONDUIT    523.16     0  07:10      1.36    1.10    1.00
  WS02006231WS02006230 CONDUIT    523.60     0  07:10      1.36    7.94    1.00
  WS02006230WS02006229 CONDUIT    534.01     0  07:10      1.39   11.88    1.00
  WS02006228WS02006109 CONDUIT    912.34     0  03:02      1.82    3.99    1.00
  WS02006116WS02004401 CONDUIT    939.83     0  03:01      1.20    1.30    1.00
  WS02006115WS02006116 CONDUIT    939.54     0  03:01      1.20    1.21    1.00
  WS02006113WS02006111 CONDUIT    913.90     0  03:02      2.61    1.10    1.00
  WS02006112WS02006115 CONDUIT    938.63     0  03:01      1.20    0.55    1.00
  WS02006111WS02006112 CONDUIT    914.22     0  03:03      1.82    0.43    1.00
  WS02006110WS02006113 CONDUIT    913.58     0  03:02      1.84    0.83    1.00
  WS02006109WS02006110 CONDUIT    913.57     0  03:02      1.82    1.76    1.00
  WS02004411WS02004412 CONDUIT    937.50     0  03:04      1.24    1.33    0.92
  WS02004401WS02004402 CONDUIT    940.18     0  03:01      1.20    1.13    1.00
  WS02004413WS02003067 CONDUIT    937.57     0  03:04      1.55    0.40    0.72
  WS02004412WS02004413 CONDUIT    937.51     0  03:04      1.22    0.63    0.95
  WS02004410WS02004411 CONDUIT    937.29     0  03:03      1.23    1.28    0.94
  WS02004409WS02004410 CONDUIT    937.81     0  03:03      1.22    1.21    0.95
  WS02004407WS02004409 CONDUIT    939.85     0  03:01      1.71    0.33    0.68
  WS02004406WS02004407 CONDUIT    941.83     0  03:01      1.61    0.42    0.70
  WS02004405WS02004406 CONDUIT    941.64     0  03:01      1.20    1.86    1.00
  WS02004404WS02004405 CONDUIT    941.66     0  03:01      1.20    9.23    1.00
  WS02004403WS02004404 CONDUIT    940.96     0  03:01      1.20    0.68    1.00
  WS02004402WS02004403 CONDUIT    940.38     0  03:01      1.20    1.35    1.00
  WS02004139WS02001211 CONDUIT    382.94     0  03:16      0.90    0.48    0.64
  WS02004138WS02004139 CONDUIT    396.19     0  00:00      3.65    0.08    0.47
  WS02003067WS02003066 CONDUIT    937.71     0  03:04      1.65    0.30    0.50
  WS02001213WS02003059 CONDUIT    398.65     0  03:15      0.88    0.66    0.87
  WS02001212WS02001213 CONDUIT    395.75     0  03:16      1.32    0.61    0.55
  WS02001211WS02001212 CONDUIT    393.23     0  03:16      0.78    0.30    0.71
  WS02003072WS02003073 CONDUIT   1320.33     0  03:07      1.95    2.85    0.58
  WS02003069WS02003072 CONDUIT   1320.04     0  03:06      1.81    0.64    0.61
  WS02003060WS02003069 CONDUIT   1319.94     0  03:06      2.02    0.52    0.56
  WS02003059WS02003060 CONDUIT    402.18     0  03:15      0.95    0.26    0.77
  HS02004901HS02004770 CONDUIT     37.23     0  03:01      0.10    0.14    0.53
  HS02004876HS02004881 CONDUIT    127.62     0  03:01      1.21    1.36    0.15
  HS02004870HS02004876 CONDUIT    103.08     0  03:01      0.82    0.07    0.18
  HS02004842HS02004848 CONDUIT     16.84     0  03:01      0.07    0.01    0.33
  HS02004837HS02004842 CONDUIT     17.90     0  03:03      0.42    0.01    0.35
  HS02004830HS02004837 CONDUIT     64.64     0  03:01      0.67    0.06    0.14
  HS02004824HS02004830 CONDUIT     64.12     0  03:02      0.62    0.08    0.16
  HS02004817HS02004824 CONDUIT    123.87     0  03:01      0.31    0.06    0.58
  HS02004770HS02004777 CONDUIT    184.94     0  03:01      0.49    0.34    0.54
  HS02004799HS02004480 CONDUIT    444.32     0  03:01      1.07    0.56    0.60
  HS02004792HS02004799 CONDUIT    408.41     0  03:01      1.20    0.25    0.49
  HS02004788HS02004792 CONDUIT    232.93     0  03:02      1.28    0.15    0.26
  HS02004785HS02004788 CONDUIT    181.74     0  03:02      0.91    1.37    0.29
  HS02004777HS02004785 CONDUIT    182.02     0  03:01      0.57    0.22    0.45
  HS02004480HS02004478 CONDUIT    517.30     0  03:01      1.55    2.18    0.48
  HS02004479HS02004480 CONDUIT     77.26     0  03:02      0.30    0.07    0.57
  HS02004862HS02004870 CONDUIT     79.02     0  03:01      0.80    0.09    0.14
  HS02004848HS02004852 CONDUIT     37.84     0  03:01      0.53    0.04    0.10
  HS02004856HS02004862 CONDUIT     54.76     0  03:01      0.59    0.05    0.13
  HS02004852HS02004856 CONDUIT     37.75     0  03:02      0.34    0.04    0.16
  HS02004802HS02004478 CONDUIT    170.16     0  03:04      0.54    0.15    0.48
  HS02004478WS02006287 CONDUIT    677.63     0  03:02      2.11    0.19    0.36
  HS02004817HS02004807 CONDUIT    128.10     0  03:04      0.25    0.08    0.75
  HS02004807HS02004802 CONDUIT    165.32     0  03:04      0.46    0.32    0.53
  YS02001759YS02001757 CONDUIT    621.01     0  02:42      0.79    0.44    1.00
  YS02001762YS02001759 CONDUIT    314.98     0  02:42      0.40    0.36    1.00
  YS02001765YS02001762 CONDUIT    315.72     0  02:43      0.40    0.30    1.00
  YS02001770YS02001767 CONDUIT    315.66     0  02:43      0.40    1.25    1.00
  YS02001774YS02001770 CONDUIT    674.58     0  03:02      0.86    0.43    1.00
  YS02001779YS02001774 CONDUIT    674.54     0  03:04      0.86    0.34    1.00
  YS02001649YS02001757 CONDUIT    873.52     0  02:39      1.11    0.53    1.00
  YS02001767YS02001765 CONDUIT    316.18     0  02:43      0.40    0.40    1.00
  YS02006561YS02001783 CONDUIT   1002.93     0  02:45      2.24    0.52    1.00
  YS02001783YS02001784 CONDUIT   1003.25     0  02:45      2.00    1.38    1.00
  YS02001784YS02001785 CONDUIT   1003.59     0  02:45      2.03    2.34    1.00
  YS02001788YS02001790 CONDUIT    982.23     0  03:25      2.49    0.72    1.00
  YS02001790YS02001791 CONDUIT   1022.11     0  02:44      3.15    1.11    1.00
  YS02001791YS02001793 CONDUIT    982.38     0  03:25      6.14    0.42    1.00
  YS02001910YS02001907 CONDUIT    597.37     0  02:50      0.76    0.34    1.00
  YS02001786YS02001788 CONDUIT    989.18     0  02:45      2.33    1.91    1.00
  YS02001915YS02001910 CONDUIT    596.87     0  02:50      0.76    0.30    1.00
  YS02001918YS02001915 CONDUIT    327.18     0  02:50      0.44    0.18    1.00
  YS02001923YS02001920 CONDUIT    322.00     0  02:50      0.75    0.14    1.00
  YS02001926YS02001923 CONDUIT    320.12     0  02:50      0.86    0.46    1.00
  YS02001929YS02001926 CONDUIT    266.38     0  02:49      0.92    0.13    0.93
  YS02001920YS02001918 CONDUIT    325.36     0  02:50      0.72    0.31    1.00
  YS02001629YS02163301 CONDUIT    203.46     0  02:32      0.26    0.25    1.00
  YS02001619YS02001622 CONDUIT    381.13     0  03:01      0.59    0.56    1.00
  YS02001622YS02001625 CONDUIT    380.95     0  03:01      0.49    0.20    1.00
  YS02001625YS02001629 CONDUIT    197.40     0  02:39      0.25    0.09    1.00
  YS02163301YS02001633 CONDUIT    205.72     0  02:34      0.26    0.19    1.00
  YS02163601YS02164001 CONDUIT    415.18     0  02:39      0.53    0.37    1.00
  YS02164001YS02001641 CONDUIT    414.31     0  02:39      0.53    0.57    1.00
  YS02001641YS02001644 CONDUIT    413.68     0  02:39      0.53    1.34    1.00
  YS02001647YS02001649 CONDUIT    729.18     0  03:10      0.93    0.38    1.00
  YS02006553YS02006556 CONDUIT    709.41     0  03:46      0.90    0.61    1.00
  YS02006556YS02006558 CONDUIT    709.67     0  03:46      0.90    0.56    1.00
  YSB6556YSB1171       CONDUIT     42.82     0  03:02      0.13    0.04    0.82
  YS02001907YS02006553 CONDUIT    709.24     0  03:46      0.79    0.83    1.00
  YS02006558YS02006561 CONDUIT   1015.81     0  02:46      3.65    2.25    1.00
  YS02001633YS02163601 CONDUIT    414.93     0  02:39      0.53    0.44    1.00
  YS02001644YS02001647 CONDUIT    729.20     0  03:10      0.93    0.43    1.00
  YS02001745YS02001748 CONDUIT    569.69     0  02:32      1.46    0.22    0.98
  YS02001748YS02001751 CONDUIT    443.70     0  03:01      1.03    0.22    1.00
  YS02001751YS02001754 CONDUIT    443.49     0  03:01      0.88    0.21    1.00
  YS02001754YS02001757 CONDUIT    443.58     0  03:01      0.56    0.18    1.00
  YS02001882YS02001884 CONDUIT     12.83     0  02:43      0.12    0.01    1.00
  YS02001884YS02001887 CONDUIT     19.79     0  02:35      0.08    0.03    1.00
  YS02001890YS02001895 CONDUIT    517.89     0  02:58      0.66    0.24    1.00
  YS02001895YS02001898 CONDUIT    517.84     0  03:01      0.66    0.90    1.00
  YS02001898YS02001901 CONDUIT    517.94     0  03:02      0.66    0.33    1.00
  YS02001901YS02001904 CONDUIT    517.59     0  02:58      0.66    0.80    1.00
  YS02001904YS02001907 CONDUIT    517.96     0  02:58      0.66    0.18    1.00
  YS02001887YS02001890 CONDUIT    679.97     0  03:01      0.87    1.16    1.00
  YS02001652YS02001649 CONDUIT    500.12     0  03:01      0.64    0.25    1.00
  YS02001655YS02001652 CONDUIT    500.19     0  03:01      0.94    0.24    1.00
  YS02001658YS02001655 CONDUIT    499.81     0  03:01      1.18    0.21    1.00
  YS02001661YS02001658 CONDUIT    629.77     0  02:29      1.52    0.25    1.00
  YS02001664YS02001661 CONDUIT    682.56     0  02:43      1.43    0.21    0.77
  YSB1154YSB6556       CONDUIT     43.29     0  03:01      0.18    0.08    0.73
  YSB1174YSB1171       CONDUIT     36.63     0  03:01      0.11    0.06    0.85
  YSB1171HS02004479    CONDUIT     75.42     0  03:02      0.54    0.05    0.68
  HS02004881HS02006253 CONDUIT    147.94     0  02:58      2.38    0.03    0.54
  YS02001793JiankangQianchi CONDUIT    982.67     0  03:25     16.69    0.08    1.00
  YS02001757CaochengTiaoxuchi CONDUIT   1677.42     0  02:40      2.17    0.74    1.00
  WSF200WS02003060     CONDUIT    938.66     0  03:04      1.94    0.21    0.44
  1                    CONDUIT   1322.50     0  03:07      3.58    0.46    0.48
  CC-Pump-1            PUMP       200.00     0  03:00              1.00
  CC-Pump-2            PUMP       200.00     0  04:00              1.00
  JK-Pump-1            PUMP       300.00     0  00:00              1.00
  JK-Pump-2            PUMP       683.00     0  00:00              1.00
  XR-Pump-1            PUMP        95.00     0  00:00              1.00
  XR-Pump-2            PUMP        95.00     0  00:00              1.00
  XR-Pump-3            PUMP        95.00     0  00:00              1.00
  XR-Pump-4            PUMP        95.00     0  00:00              1.00
  
  
  ***************************
  Flow Classification Summary
  ***************************
  
  -------------------------------------------------------------------------------------
                      Adjusted    ---------- Fraction of Time in Flow Class ---------- 
                       /Actual         Up    Down  Sub   Sup   Up    Down  Norm  Inlet 
  Conduit               Length    Dry  Dry   Dry   Crit  Crit  Crit  Crit  Ltd   Ctrl  
  -------------------------------------------------------------------------------------
  WS02003066WSF200        1.00   0.01  0.07  0.00  0.00  0.92  0.00  0.00  0.53  0.00
  WS02006287WS02006284    1.00   0.03  0.02  0.00  0.54  0.41  0.00  0.00  0.65  0.00
  WS02006284WS02006280    1.00   0.04  0.00  0.00  0.00  0.00  0.00  0.96  0.00  0.00
  WS02006280WS02006229    1.00   0.04  0.00  0.00  0.01  0.02  0.00  0.93  0.01  0.00
  WS02006229WS02006228    1.00   0.00  0.00  0.00  1.00  0.00  0.00  0.00  0.00  0.00
  WS02006256WS02006235    1.00   0.00  0.00  0.00  1.00  0.00  0.00  0.00  0.00  0.00
  WS02006253WS02006251    1.00   0.02  0.02  0.00  0.95  0.00  0.01  0.00  0.00  0.00
  WS02006252WS02006251    1.00   0.21  0.00  0.00  0.09  0.00  0.69  0.00  0.00  0.00
  WS02006251WS02006249    1.00   0.00  0.00  0.00  1.00  0.00  0.00  0.00  0.43  0.00
  WS02006249WS02006248    1.00   0.00  0.01  0.00  0.83  0.00  0.16  0.00  0.00  0.00
  WS02006248WS02006247    1.00   0.01  0.00  0.00  0.97  0.00  0.00  0.02  0.26  0.00
  WS02006247WS02006245    1.00   0.01  0.00  0.00  0.95  0.00  0.00  0.04  0.00  0.00
  WS02006245WS02006243    1.00   0.00  0.00  0.00  0.93  0.00  0.00  0.07  0.02  0.00
  WS02006243WS02006242    1.00   0.00  0.00  0.00  1.00  0.00  0.00  0.00  0.34  0.00
  WS02006242WS02006240    1.00   0.00  0.00  0.00  1.00  0.00  0.00  0.00  0.00  0.00
  WS02006240WS02006239    1.00   0.00  0.00  0.00  0.91  0.00  0.00  0.09  0.02  0.00
  WS02006239WS02006238    1.00   0.00  0.00  0.00  1.00  0.00  0.00  0.00  0.19  0.00
  WS02006238WS02006235    1.00   0.00  0.00  0.00  1.00  0.00  0.00  0.00  0.00  0.00
  WS02006235WS02006234    1.00   0.00  0.00  0.00  0.93  0.00  0.07  0.00  0.00  0.00
  WS02006234WS02006232    1.00   0.00  0.00  0.00  1.00  0.00  0.00  0.00  0.12  0.00
  WS02006232WS02006231    1.00   0.00  0.00  0.00  1.00  0.00  0.00  0.00  0.00  0.00
  WS02006231WS02006230    1.00   0.00  0.00  0.00  0.65  0.00  0.35  0.00  0.00  0.00
  WS02006230WS02006229    1.00   0.00  0.00  0.00  1.00  0.00  0.00  0.00  0.01  0.00
  WS02006228WS02006109    1.00   0.00  0.00  0.00  1.00  0.00  0.00  0.00  0.00  0.00
  WS02006116WS02004401    1.00   0.01  0.00  0.00  0.99  0.00  0.00  0.00  0.01  0.00
  WS02006115WS02006116    1.00   0.01  0.00  0.00  0.97  0.00  0.00  0.02  0.01  0.00
  WS02006113WS02006111    1.00   0.01  0.00  0.00  0.04  0.95  0.00  0.00  0.18  0.00
  WS02006112WS02006115    1.00   0.01  0.00  0.00  0.99  0.00  0.00  0.00  0.00  0.00
  WS02006111WS02006112    1.00   0.01  0.00  0.00  0.99  0.00  0.00  0.00  0.88  0.00
  WS02006110WS02006113    1.00   0.00  0.00  0.00  0.99  0.00  0.00  0.00  0.00  0.00
  WS02006109WS02006110    1.00   0.00  0.00  0.00  0.99  0.00  0.00  0.00  0.00  0.00
  WS02004411WS02004412    1.00   0.06  0.00  0.00  0.94  0.00  0.00  0.00  0.00  0.00
  WS02004401WS02004402    1.00   0.01  0.00  0.00  0.99  0.00  0.00  0.00  0.01  0.00
  WS02004413WS02003067    1.00   0.07  0.01  0.00  0.00  0.00  0.92  0.00  0.00  0.00
  WS02004412WS02004413    1.00   0.07  0.00  0.00  0.93  0.00  0.00  0.00  0.00  0.00
  WS02004410WS02004411    1.00   0.06  0.00  0.00  0.94  0.00  0.00  0.00  0.00  0.00
  WS02004409WS02004410    1.00   0.06  0.00  0.00  0.94  0.00  0.00  0.00  0.00  0.00
  WS02004407WS02004409    1.00   0.06  0.00  0.00  0.93  0.01  0.00  0.00  0.80  0.00
  WS02004406WS02004407    1.00   0.00  0.06  0.00  0.94  0.00  0.00  0.00  0.00  0.00
  WS02004405WS02004406    1.00   0.00  0.00  0.00  1.00  0.00  0.00  0.00  0.02  0.00
  WS02004404WS02004405    1.00   0.00  0.00  0.00  1.00  0.00  0.00  0.00  0.00  0.00
  WS02004403WS02004404    1.00   0.00  0.01  0.00  0.99  0.00  0.00  0.00  0.02  0.00
  WS02004402WS02004403    1.00   0.01  0.00  0.00  0.99  0.00  0.00  0.00  0.00  0.00
  WS02004139WS02001211    1.00   0.00  0.00  0.00  1.00  0.00  0.00  0.00  0.00  0.00
  WS02004138WS02004139    1.00   0.00  0.00  0.00  1.00  0.00  0.00  0.00  1.00  0.00
  WS02003067WS02003066    1.00   0.08  0.00  0.00  0.92  0.00  0.00  0.00  0.00  0.00
  WS02001213WS02003059    1.00   0.00  0.00  0.00  1.00  0.00  0.00  0.00  0.00  0.00
  WS02001212WS02001213    1.00   0.00  0.00  0.00  0.89  0.00  0.11  0.00  0.00  0.00
  WS02001211WS02001212    1.00   0.00  0.00  0.00  1.00  0.00  0.00  0.00  0.00  0.00
  WS02003072WS02003073    1.00   0.00  0.00  0.00  0.00  0.00  0.00  1.00  0.00  0.00
  WS02003069WS02003072    1.00   0.00  0.00  0.00  1.00  0.00  0.00  0.00  0.10  0.00
  WS02003060WS02003069    1.00   0.00  0.00  0.00  0.99  0.01  0.00  0.00  0.08  0.00
  WS02003059WS02003060    1.00   0.00  0.00  0.00  1.00  0.00  0.00  0.00  0.00  0.00
  HS02004901HS02004770    1.00   0.04  0.00  0.00  0.96  0.00  0.00  0.00  0.00  0.00
  HS02004876HS02004881    1.00   0.01  0.00  0.00  0.90  0.10  0.00  0.00  0.00  0.00
  HS02004870HS02004876    1.00   0.00  0.00  0.00  0.99  0.00  0.00  0.00  0.95  0.00
  HS02004842HS02004848    1.00   0.00  0.04  0.00  0.96  0.00  0.00  0.00  0.54  0.00
  HS02004837HS02004842    1.00   0.00  0.00  0.00  1.00  0.00  0.00  0.00  0.11  0.00
  HS02004830HS02004837    1.00   0.00  0.00  0.00  1.00  0.00  0.00  0.00  0.99  0.00
  HS02004824HS02004830    1.00   0.00  0.00  0.00  1.00  0.00  0.00  0.00  0.01  0.00
  HS02004817HS02004824    1.00   0.00  0.00  0.00  1.00  0.00  0.00  0.00  0.97  0.00
  HS02004770HS02004777    1.00   0.00  0.04  0.00  0.96  0.00  0.00  0.00  0.03  0.00
  HS02004799HS02004480    1.00   0.00  0.01  0.00  0.95  0.00  0.04  0.00  0.00  0.00
  HS02004792HS02004799    1.00   0.00  0.00  0.00  1.00  0.00  0.00  0.00  0.98  0.00
  HS02004788HS02004792    1.00   0.00  0.00  0.00  1.00  0.00  0.00  0.00  0.98  0.00
  HS02004785HS02004788    1.00   0.00  0.00  0.00  1.00  0.00  0.00  0.00  0.00  0.00
  HS02004777HS02004785    1.00   0.00  0.00  0.00  1.00  0.00  0.00  0.00  0.12  0.00
  HS02004480HS02004478    1.00   0.04  0.00  0.00  0.63  0.00  0.00  0.33  0.00  0.00
  HS02004479HS02004480    1.00   0.01  0.00  0.00  0.99  0.00  0.00  0.00  0.12  0.00
  HS02004862HS02004870    1.00   0.00  0.00  0.00  1.00  0.00  0.00  0.00  0.04  0.00
  HS02004848HS02004852    1.00   0.04  0.00  0.00  0.96  0.00  0.00  0.00  0.64  0.00
  HS02004856HS02004862    1.00   0.00  0.05  0.00  0.95  0.00  0.00  0.00  0.83  0.00
  HS02004852HS02004856    1.00   0.04  0.00  0.00  0.96  0.00  0.00  0.00  0.81  0.00
  HS02004802HS02004478    1.00   0.04  0.00  0.00  0.96  0.00  0.00  0.00  0.02  0.00
  HS02004478WS02006287    1.00   0.05  0.00  0.00  0.71  0.24  0.00  0.00  0.65  0.00
  HS02004817HS02004807    1.00   0.00  0.04  0.00  0.96  0.00  0.00  0.00  0.01  0.00
  HS02004807HS02004802    1.00   0.04  0.00  0.00  0.95  0.00  0.00  0.01  0.00  0.00
  YS02001759YS02001757    1.00   0.00  0.00  0.00  1.00  0.00  0.00  0.00  0.16  0.00
  YS02001762YS02001759    1.00   0.00  0.00  0.00  1.00  0.00  0.00  0.00  0.03  0.00
  YS02001765YS02001762    1.00   0.00  0.00  0.00  1.00  0.00  0.00  0.00  0.14  0.00
  YS02001770YS02001767    1.00   0.00  0.00  0.00  1.00  0.00  0.00  0.00  0.00  0.00
  YS02001774YS02001770    1.00   0.00  0.04  0.00  0.96  0.00  0.00  0.00  0.03  0.00
  YS02001779YS02001774    1.00   0.00  0.00  0.00  1.00  0.00  0.00  0.00  0.19  0.00
  YS02001649YS02001757    1.00   0.00  0.00  0.00  1.00  0.00  0.00  0.00  0.16  0.00
  YS02001767YS02001765    1.00   0.00  0.00  0.00  1.00  0.00  0.00  0.00  0.00  0.00
  YS02006561YS02001783    1.00   0.06  0.00  0.00  0.43  0.51  0.00  0.00  0.46  0.00
  YS02001783YS02001784    1.00   0.00  0.06  0.00  0.94  0.00  0.00  0.00  0.00  0.00
  YS02001784YS02001785    1.00   0.00  0.00  0.00  1.00  0.00  0.00  0.00  0.18  0.00
  YS02001788YS02001790    1.00   0.00  0.00  0.00  0.46  0.54  0.00  0.00  0.35  0.00
  YS02001790YS02001791    1.00   0.00  0.00  0.00  0.42  0.58  0.00  0.00  0.41  0.00
  YS02001791YS02001793    1.00   0.00  0.00  0.00  0.46  0.54  0.00  0.00  0.03  0.00
  YS02001910YS02001907    1.00   0.00  0.00  0.00  0.99  0.00  0.00  0.01  0.12  0.00
  YS02001786YS02001788    1.00   0.00  0.00  0.00  0.45  0.55  0.00  0.00  0.00  0.00
  YS02001915YS02001910    1.00   0.00  0.00  0.00  0.99  0.01  0.00  0.00  0.16  0.00
  YS02001918YS02001915    1.00   0.00  0.00  0.00  0.99  0.01  0.00  0.00  0.54  0.00
  YS02001923YS02001920    1.00   0.00  0.00  0.00  1.00  0.00  0.00  0.00  0.82  0.00
  YS02001926YS02001923    1.00   0.00  0.02  0.00  0.19  0.00  0.78  0.00  0.00  0.00
  YS02001929YS02001926    1.00   0.00  0.04  0.00  0.96  0.00  0.00  0.00  0.75  0.00
  YS02001920YS02001918    1.00   0.00  0.00  0.00  1.00  0.00  0.00  0.00  0.00  0.00
  YS02001629YS02163301    1.00   0.05  0.00  0.00  0.95  0.00  0.00  0.00  0.00  0.00
  YS02001619YS02001622    1.00   0.04  0.00  0.00  0.96  0.00  0.00  0.00  0.00  0.00
  YS02001622YS02001625    1.00   0.04  0.00  0.00  0.96  0.00  0.00  0.00  0.05  0.00
  YS02001625YS02001629    1.00   0.04  0.02  0.00  0.92  0.00  0.02  0.00  0.00  0.00
  YS02163301YS02001633    1.00   0.00  0.05  0.00  0.95  0.00  0.00  0.00  0.00  0.00
  YS02163601YS02164001    1.00   0.00  0.03  0.00  0.97  0.00  0.00  0.00  0.00  0.00
  YS02164001YS02001641    1.00   0.00  0.02  0.00  0.97  0.00  0.00  0.00  0.06  0.00
  YS02001641YS02001644    1.00   0.00  0.00  0.00  1.00  0.00  0.00  0.00  0.00  0.00
  YS02001647YS02001649    1.00   0.00  0.06  0.00  0.94  0.00  0.00  0.00  0.01  0.00
  YS02006553YS02006556    1.00   0.01  0.00  0.00  0.99  0.00  0.00  0.00  0.03  0.00
  YS02006556YS02006558    1.00   0.00  0.00  0.00  1.00  0.00  0.00  0.00  0.00  0.00
  YSB6556YSB1171          1.00   0.01  0.03  0.00  0.96  0.00  0.00  0.00  0.00  0.00
  YS02001907YS02006553    1.00   0.00  0.01  0.00  0.99  0.00  0.00  0.00  0.00  0.00
  YS02006558YS02006561    1.00   0.06  0.00  0.00  0.18  0.76  0.00  0.00  0.46  0.00
  YS02001633YS02163601    1.00   0.00  0.00  0.00  1.00  0.00  0.00  0.00  0.15  0.00
  YS02001644YS02001647    1.00   0.00  0.06  0.00  0.94  0.00  0.00  0.00  0.00  0.00
  YS02001745YS02001748    1.00   0.00  0.00  0.00  0.89  0.01  0.00  0.10  0.04  0.00
  YS02001748YS02001751    1.00   0.00  0.00  0.00  0.96  0.04  0.00  0.00  0.15  0.00
  YS02001751YS02001754    1.00   0.00  0.00  0.00  0.93  0.00  0.00  0.07  0.02  0.00
  YS02001754YS02001757    1.00   0.00  0.00  0.00  1.00  0.00  0.00  0.00  0.18  0.00
  YS02001882YS02001884    1.00   0.05  0.00  0.00  0.95  0.00  0.00  0.00  0.00  0.00
  YS02001884YS02001887    1.00   0.02  0.02  0.00  0.96  0.00  0.00  0.00  0.00  0.00
  YS02001890YS02001895    1.00   0.00  0.05  0.00  0.95  0.00  0.00  0.00  0.00  0.00
  YS02001895YS02001898    1.00   0.05  0.00  0.00  0.94  0.00  0.01  0.00  0.00  0.00
  YS02001898YS02001901    1.00   0.05  0.00  0.00  0.95  0.00  0.00  0.00  0.01  0.00
  YS02001901YS02001904    1.00   0.05  0.00  0.00  0.95  0.00  0.00  0.00  0.00  0.00
  YS02001904YS02001907    1.00   0.00  0.05  0.00  0.95  0.00  0.00  0.00  0.00  0.00
  YS02001887YS02001890    1.00   0.00  0.00  0.00  0.99  0.00  0.01  0.00  0.00  0.00
  YS02001652YS02001649    1.00   0.00  0.00  0.00  1.00  0.00  0.00  0.00  0.17  0.00
  YS02001655YS02001652    1.00   0.00  0.00  0.00  0.93  0.00  0.00  0.06  0.02  0.00
  YS02001658YS02001655    1.00   0.00  0.04  0.00  0.92  0.04  0.00  0.00  0.10  0.00
  YS02001661YS02001658    1.00   0.04  0.00  0.00  0.89  0.07  0.00  0.00  0.11  0.00
  YS02001664YS02001661    1.00   0.04  0.00  0.00  0.91  0.05  0.00  0.00  0.20  0.00
  YSB1154YSB6556          1.00   0.04  0.00  0.00  0.96  0.00  0.00  0.00  0.02  0.00
  YSB1174YSB1171          1.00   0.02  0.01  0.00  0.97  0.00  0.00  0.00  0.00  0.00
  YSB1171HS02004479       1.00   0.01  0.00  0.00  0.98  0.00  0.00  0.00  0.10  0.00
  HS02004881HS02006253    1.00   0.02  0.00  0.00  0.48  0.05  0.00  0.44  0.32  0.00
  YS02001793JiankangQianchi    1.00   0.00  0.00  0.00  0.70  0.30  0.00  0.00  0.38  0.00
  YS02001757CaochengTiaoxuchi    1.00   0.00  0.08  0.00  0.92  0.00  0.00  0.00  0.00  0.00
  WSF200WS02003060        1.00   0.00  0.01  0.00  0.99  0.00  0.00  0.00  0.51  0.00
  1                       1.00   0.00  0.00  0.00  0.00  1.00  0.00  0.00  0.49  0.00
  
  
  *************************
  Conduit Surcharge Summary
  *************************
  
  ----------------------------------------------------------------------------
                                                           Hours        Hours 
                         --------- Hours Full --------   Above Full   Capacity
  Conduit                Both Ends  Upstream  Dnstream   Normal Flow   Limited
  ----------------------------------------------------------------------------
  WS02006229WS02006228        2.69      2.80      2.69      3.45         2.68
  WS02006256WS02006235        4.99      5.00      6.32      4.26         0.01
  WS02006253WS02006251        0.86      0.86      0.88      0.01         0.01
  WS02006252WS02006251        0.71      0.71      1.10      0.64         0.01
  WS02006251WS02006249        0.87      0.87      0.90      0.28         0.22
  WS02006249WS02006248        0.88      0.88      0.90      1.48         0.01
  WS02006248WS02006247        0.91      0.91      0.99      0.01         0.01
  WS02006247WS02006245        0.99      1.01      0.99      2.16         0.90
  WS02006245WS02006243        1.02      1.02      1.11      0.06         0.05
  WS02006243WS02006242        1.15      1.15      1.50      0.01         0.01
  WS02006242WS02006240        1.44      1.44      1.69      0.73         0.01
  WS02006240WS02006239        1.49      1.49      1.71      0.33         0.18
  WS02006239WS02006238        1.98      1.98      2.30      0.37         0.23
  WS02006238WS02006235        2.28      2.28      2.49      0.01         0.01
  WS02006235WS02006234        1.90      1.90      2.19      4.95         0.01
  WS02006234WS02006232        2.07      2.07      2.66      0.35         0.33
  WS02006232WS02006231        1.38      1.38      2.66      0.40         0.01
  WS02006231WS02006230        1.14      1.14      1.44      5.01         0.01
  WS02006230WS02006229        3.05      3.31      3.05      5.20         3.05
[...]
  YS02001779YS02001774        5.56      5.56      5.74      0.01         0.01
  YS02001649YS02001757        5.76      5.76      5.86      0.01         0.01
  YS02001767YS02001765        5.70      5.70      5.72      0.01         0.01
  YS02006561YS02001783        0.92      0.92      1.19      0.01         0.01
  YS02001783YS02001784        1.14      1.19      1.14      1.56         1.14
  YS02001784YS02001785        1.02      1.14      1.02      2.47         1.02
  YS02001788YS02001790        0.97      0.97      2.09      0.01         0.01
  YS02001790YS02001791        2.08      2.09      2.25      1.08         1.03
  YS02001791YS02001793        2.25      2.25      2.73      0.01         0.01
  YS02001910YS02001907        1.24      1.24      1.90      0.01         0.01
  YS02001786YS02001788        0.97      1.02      0.97      2.09         0.97
  YS02001915YS02001910        1.05      1.05      1.24      0.01         0.01
  YS02001918YS02001915        0.88      0.88      1.05      0.01         0.01
  YS02001923YS02001920        0.73      0.73      0.90      0.01         0.01
  YS02001926YS02001923        0.01      0.01      0.01      0.01         0.01
  YS02001929YS02001926        0.01      0.01      0.01      0.01         0.01
  YS02001920YS02001918        0.88      0.88      0.90      0.01         0.01
  YS02001629YS02163301        5.67      5.67      5.69      0.01         0.01
  YS02001619YS02001622        5.37      5.37      5.41      0.01         0.01
  YS02001622YS02001625        5.41      5.41      5.64      0.01         0.01
  YS02001625YS02001629        5.38      5.38      5.64      0.01         0.01
  YS02163301YS02001633        5.69      5.69      5.72      0.01         0.01
  YS02163601YS02164001        5.72      5.72      5.75      0.01         0.01
  YS02164001YS02001641        5.72      5.72      5.73      0.01         0.03
  YS02001641YS02001644        5.73      5.73      5.73      1.72         1.90
  YS02001647YS02001649        5.62      5.62      5.76      0.01         0.01
  YS02006553YS02006556        1.47      1.47      1.97      0.01         0.01
  YS02006556YS02006558        1.67      1.67      2.04      0.01         0.01
  YSB6556YSB1171              0.01      0.01      0.07      0.01         0.01
  YS02001907YS02006553        2.53      2.53      2.75      0.01         0.01
  YS02006558YS02006561        0.99      1.43      0.99      2.35         0.99
  YS02001633YS02163601        5.71      5.71      5.75      0.01         0.01
  YS02001644YS02001647        5.62      5.62      5.73      0.01         0.01
  YS02001745YS02001748        0.01      0.01      5.22      0.01         0.01
  YS02001748YS02001751        5.26      5.26      5.38      0.01         0.01
  YS02001751YS02001754        5.38      5.38      5.58      0.01         0.01
  YS02001754YS02001757        5.62      5.62      5.86      0.01         0.01
  YS02001882YS02001884        1.07      1.07      1.09      0.01         0.01
  YS02001884YS02001887        1.14      1.14      1.17      0.01         0.01
  YS02001890YS02001895        1.03      1.03      1.26      0.01         0.01
  YS02001895YS02001898        1.02      1.02      1.03      0.01         0.01
  YS02001898YS02001901        1.04      1.04      1.13      0.01         0.01
  YS02001901YS02001904        1.11      1.11      1.13      0.01         0.01
  YS02001904YS02001907        1.11      1.11      1.99      0.01         0.01
  YS02001887YS02001890        1.20      1.20      1.23      0.16         0.01
  YS02001652YS02001649        5.63      5.63      5.76      0.01         0.01
  YS02001655YS02001652        5.39      5.39      5.61      0.01         0.01
  YS02001658YS02001655        5.25      5.25      5.39      0.01         0.01
  YS02001661YS02001658        0.12      0.12      5.25      0.01         0.01
  YS02001664YS02001661        0.01      0.01      1.15      0.01         0.01
  HS02004881HS02006253        0.01      0.01      0.57      0.01         0.01
  YS02001793JiankangQianchi        2.61      2.61      4.27      0.01         0.01
  YS02001757CaochengTiaoxuchi        5.11      5.11      5.86      0.01         0.01
  
  
  ***************
  Pumping Summary
  ***************
  
  ---------------------------------------------------------------------------------------------------------
                                                  Min       Avg       Max     Total     Power    % Time Off
                        Percent   Number of      Flow      Flow      Flow    Volume     Usage    Pump Curve
  Pump                 Utilized   Start-Ups       LPS       LPS       LPS  10^6 ltr     Kw-hr    Low   High
  ---------------------------------------------------------------------------------------------------------
  CC-Pump-1               40.42           3      0.00    143.37    200.00     1.560      1.30    0.0    0.0
  CC-Pump-2               14.89           3      0.00    101.92    200.00     0.480      0.58    0.0    0.0
  JK-Pump-1               61.70           4      0.00    241.42    300.00     3.813     55.64    0.0    0.0
  JK-Pump-2               51.06           5      0.00    436.75    683.00     5.670     80.44    0.0   95.2
  XR-Pump-1               97.87           2      0.00     94.41     95.00     2.565     25.20    0.0    0.0
  XR-Pump-2               95.74           3      0.00     93.00     95.00     2.451     22.75    0.0    0.0
  XR-Pump-3               95.74           3      0.00     93.00     95.00     2.451     22.75    0.0    0.0
  XR-Pump-4               95.74           3      0.00     93.00     95.00     2.451     22.75    0.0    0.0
  
  
  ***************************
  Link Pollutant Load Summary
  ***************************
  
  ------------------------------------------------------------------------------------------
                                 COD            SS            TN            TP         NH4-N
  Link                            kg            kg            kg            kg            kg
  ------------------------------------------------------------------------------------------
  WS02003066WSF200           770.834      1444.307        20.494         1.815        10.835
  WS02006287WS02006284       319.510       608.194        10.315         1.015         5.679
  WS02006284WS02006280       319.999       608.999        10.361         1.021         5.708
  WS02006280WS02006229       319.939       608.884        10.358         1.020         5.706
  WS02006229WS02006228       755.776      1417.204        19.735         1.727        10.386
  WS02006256WS02006235       223.267       411.075         4.954         0.386         2.508
  WS02006253WS02006251        60.232       118.783         1.312         0.098         0.649
  WS02006252WS02006251       184.086       338.539         3.815         0.277         1.876
  WS02006251WS02006249       238.765       447.211         5.011         0.366         2.468
  WS02006249WS02006248       216.924       405.060         4.562         0.334         2.248
  WS02006248WS02006247       216.707       404.625         4.558         0.333         2.247
  WS02006247WS02006245       216.577       404.392         4.553         0.333         2.243
  WS02006245WS02006243       216.101       403.592         4.534         0.331         2.233
  WS02006243WS02006242       216.350       404.041         4.539         0.331         2.235
  WS02006242WS02006240       216.232       403.769         4.534         0.331         2.232
  WS02006240WS02006239       216.701       404.478         4.546         0.331         2.238
  WS02006239WS02006238       217.875       406.218         4.590         0.336         2.262
  WS02006238WS02006235       218.715       407.472         4.619         0.338         2.278
  WS02006235WS02006234       436.038       808.532         9.400         0.710         4.695
  WS02006234WS02006232       436.327       809.010         9.412         0.711         4.701
  WS02006232WS02006231       436.268       808.913         9.409         0.711         4.700
  WS02006231WS02006230       436.330       809.073         9.409         0.711         4.699
  WS02006230WS02006229       436.207       808.922         9.400         0.710         4.694
  WS02006228WS02006109       755.872      1417.373        19.730         1.726        10.382
  WS02006116WS02004401       775.697      1453.099        20.666         1.833        10.932
  WS02006115WS02006116       775.827      1453.320        20.676         1.834        10.938
  WS02006113WS02006111       763.970      1430.383        20.493         1.821        10.858
  WS02006112WS02006115       776.253      1453.983        20.712         1.838        10.960
  WS02006111WS02006112       764.042      1430.523        20.490         1.821        10.857
  WS02006110WS02006113       764.174      1430.680        20.512         1.824        10.871
  WS02006109WS02006110       764.589      1431.334        20.550         1.829        10.894
  WS02004411WS02004412       773.450      1448.908        20.617         1.829        10.907
  WS02004401WS02004402       775.275      1452.411        20.636         1.829        10.913
  WS02004413WS02003067       771.268      1445.172        20.502         1.816        10.839
  WS02004412WS02004413       772.751      1447.669        20.590         1.826        10.892
  WS02004410WS02004411       773.948      1449.817        20.635         1.831        10.917
  WS02004409WS02004410       774.487      1450.770        20.660         1.833        10.932
  WS02004407WS02004409       774.726      1451.234        20.665         1.834        10.934
  WS02004406WS02004407       774.645      1451.164        20.652         1.832        10.927
  WS02004405WS02004406       775.682      1452.920        20.723         1.840        10.969
  WS02004404WS02004405       775.474      1452.653        20.687         1.836        10.947
  WS02004403WS02004404       774.617      1451.311        20.594         1.824        10.888
  WS02004402WS02004403       775.037      1452.002        20.622         1.827        10.905
  WS02004139WS02001211      1382.346      2295.196       112.221        13.698        69.174
  WS02004138WS02004139      1388.600      2305.639       112.704        13.757        69.471
  WS02003067WS02003066       771.038      1444.683        20.502         1.816        10.840
  WS02001213WS02003059      1415.685      2347.602       115.672        14.134        71.342
  WS02001212WS02001213      1424.788      2362.680       116.411        14.224        71.798
  WS02001211WS02001212      1426.759      2365.896       116.582        14.245        71.904
  WS02003072WS02003073      2287.369      3952.158       146.151        17.202        88.431
  WS02003069WS02003072      2292.036      3959.755       146.546        17.251        88.676
  WS02003060WS02003069      2294.724      3964.369       146.718        17.271        88.779
  WS02003059WS02003060      1412.918      2342.899       115.480        14.111        71.225
  HS02004901HS02004770        13.093        25.473         0.248         0.019         0.116
  HS02004876HS02004881        45.519        90.357         0.999         0.073         0.491
  HS02004870HS02004876        34.384        68.110         0.798         0.060         0.395
  HS02004842HS02004848         6.456        12.343         0.134         0.009         0.062
  HS02004837HS02004842        11.055        19.634         0.603         0.068         0.356
  HS02004830HS02004837        70.297       122.726         4.643         0.552         2.827
  HS02004824HS02004830        71.070       123.984         4.715         0.561         2.871
  HS02004817HS02004824        97.164       176.411         5.254         0.596         3.135
  HS02004770HS02004777        49.664        97.717         1.021         0.069         0.472
  HS02004799HS02004480       162.337       310.870         4.263         0.379         2.210
  HS02004792HS02004799       147.283       280.147         4.029         0.367         2.105
  HS02004788HS02004792        82.822       157.700         2.666         0.255         1.440
  HS02004785HS02004788        51.125       100.059         1.172         0.089         0.567
  HS02004777HS02004785        50.449        98.952         1.112         0.081         0.530
  HS02004480HS02004478       204.837       395.230         4.972         0.429         2.543
  HS02004479HS02004480        46.124        90.110         1.036         0.091         0.538
  HS02004862HS02004870        25.801        50.344         0.628         0.050         0.314
  HS02004848HS02004852        10.252        19.885         0.210         0.014         0.097
  HS02004856HS02004862        17.526        34.752         0.350         0.023         0.164
  HS02004852HS02004856        10.256        19.891         0.210         0.014         0.097
  HS02004802HS02004478       115.343       214.057         5.398         0.592         3.169
  HS02004478WS02006287       319.720       608.557        10.332         1.017         5.689
  HS02004817HS02004807        95.861       174.319         5.130         0.581         3.057
  HS02004807HS02004802       115.600       214.460         5.430         0.596         3.189
  YS02001759YS02001757       342.608       629.181         6.843         0.475         3.344
  YS02001762YS02001759       183.849       338.858         3.847         0.271         1.899
  YS02001765YS02001762       184.580       340.864         3.879         0.274         1.918
  YS02001770YS02001767       186.137       345.831         3.726         0.249         1.810
  YS02001774YS02001770       272.868       530.825         5.236         0.349         2.530
  YS02001779YS02001774       272.265       529.662         5.319         0.362         2.588
  YS02001649YS02001757       371.460       670.554         7.558         0.518         3.648
  YS02001767YS02001765       185.910       343.987         3.917         0.277         1.937
  YS02006561YS02001783      1020.946      1891.898        21.440         1.603        10.675
  YS02001783YS02001784      1020.825      1891.708        21.436         1.602        10.673
  YS02001784YS02001785      1028.164      1903.478        22.149         1.692        11.119
  YS02001788YS02001790      1028.773      1904.468        22.222         1.701        11.165
  YS02001790YS02001791      1029.829      1906.200        22.323         1.714        11.228
  YS02001791YS02001793      1029.729      1906.016        22.319         1.713        11.226
  YS02001910YS02001907       391.806       722.439         9.469         0.729         4.862
  YS02001786YS02001788      1028.419      1903.925        22.178         1.695        11.137
  YS02001915YS02001910       391.859       722.519         9.421         0.722         4.829
  YS02001918YS02001915       190.733       336.843         5.292         0.483         2.854
  YS02001923YS02001920       168.999       300.998         3.319         0.239         1.626
  YS02001926YS02001923       166.855       297.302         3.215         0.227         1.565
  YS02001929YS02001926       164.767       293.688         3.113         0.216         1.504
  YS02001920YS02001918       189.187       333.470         5.239         0.478         2.825
  YS02001629YS02163301        96.059       169.856         2.027         0.131         0.946
  YS02001619YS02001622       175.868       321.126         3.601         0.236         1.684
  YS02001622YS02001625       174.679       319.237         3.573         0.234         1.671
  YS02001625YS02001629        97.148       171.636         2.052         0.132         0.957
  YS02163301YS02001633        96.424       170.733         2.030         0.132         0.948
  YS02163601YS02164001       405.668       733.055         7.897         0.562         3.783
  YS02164001YS02001641       405.120       732.125         7.877         0.560         3.772
  YS02001641YS02001644       405.168       732.125         7.872         0.560         3.769
  YS02001647YS02001649       477.051       873.180         9.594         0.664         4.599
  YS02006553YS02006556       686.986      1262.254        14.814         1.137         7.462
  YS02006556YS02006558       686.907      1262.090        14.784         1.133         7.442
  YSB6556YSB1171              26.521        51.968         0.537         0.045         0.272
  YS02001907YS02006553       687.113      1262.513        14.822         1.138         7.467
  YS02006558YS02006561      1020.957      1891.911        21.440         1.603        10.675
  YS02001633YS02163601       406.379       734.160         7.878         0.558         3.767
  YS02001644YS02001647       481.886       882.236         9.665         0.669         4.631
  YS02001745YS02001748       248.839       465.555         5.386         0.367         2.663
  YS02001748YS02001751       247.351       462.638         5.459         0.380         2.717
  YS02001751YS02001754       246.401       461.069         5.444         0.379         2.711
  YS02001754YS02001757       247.137       462.162         5.608         0.402         2.818
  YS02001882YS02001884         2.728         4.700         0.056         0.004         0.028
  YS02001884YS02001887         6.606        11.700         0.130         0.010         0.065
  YS02001890YS02001895       451.096       846.701         8.304         0.624         4.050
  YS02001895YS02001898       450.959       846.537         8.298         0.624         4.047
  YS02001898YS02001901       450.769       846.214         8.294         0.624         4.045
  YS02001901YS02001904       450.631       846.025         8.300         0.625         4.050
  YS02001904YS02001907       450.852       846.361         8.353         0.632         4.084
  YS02001887YS02001890       468.353       880.926         8.647         0.653         4.223
  YS02001652YS02001649       203.090       377.183         4.092         0.294         1.919
  YS02001655YS02001652       203.977       378.596         4.115         0.296         1.930
  YS02001658YS02001655       203.796       378.287         4.036         0.285         1.877
  YS02001661YS02001658       207.467       384.760         4.112         0.290         1.912
  YS02001664YS02001661       218.910       403.598         4.370         0.308         2.030
  YSB1154YSB6556              26.084        51.271         0.486         0.038         0.239
  YSB1174YSB1171              18.021        35.563         0.361         0.029         0.180
  YSB1171HS02004479           46.090        90.056         1.039         0.092         0.540
  HS02004881HS02006253        51.697       103.049         1.110         0.080         0.544
  YS02001793JiankangQianchi      1030.095      1906.519        22.355         1.718        11.248
  YS02001757CaochengTiaoxuchi       529.743       967.927        11.002         0.787         5.400
  WSF200WS02003060           770.910      1444.336        20.514         1.818        10.848
  1                         2292.146      3958.779       146.838        17.291        88.869
  CC-Pump-1                  140.406       258.171         2.897         0.209         1.422
  CC-Pump-2                   43.327        79.794         0.892         0.064         0.438
  JK-Pump-1                  291.583       540.712         6.354         0.491         3.204
  JK-Pump-2                  476.641       890.900         9.992         0.752         4.982
  XR-Pump-1                  364.822       604.733        29.850         3.648        18.412
  XR-Pump-2                  342.509       569.033        27.721         3.382        17.083
  XR-Pump-3                  342.509       569.033        27.721         3.382        17.083
  XR-Pump-4                  342.509       569.033        27.721         3.382        17.083
  

  Analysis begun on:  Sun Jun 13 15:55:39 2021
  Analysis ended on:  Sun Jun 13 15:55:41 2021
  Total elapsed time: 00:00:02