
  EPA STORM WATER MANAGEMENT MODEL - VERSION 5.1 (Build 5.3.0.dev0)
  --------------------------------------------------------------

  WARNING 09: time series interval greater than recording interval for Rain Gage RG1
  WARNING 09: time series interval greater than recording interval for Rain Gage RG2
  WARNING 09: time series interval greater than recording interval for Rain Gage RG3
  WARNING 09: time series interval greater than recording interval for Rain Gage RG4
  
  *********************************************************
  NOTE: The summary statistics displayed in this report are
  based on results found at every computational time step,  
  not just on results from each reporting time step.
  *********************************************************
  
  ****************
  Analysis Options
  ****************
  Flow Units ............... CMS
  Process Models:
    Rainfall/Runoff ........ YES
    RDII ................... NO
    Snowmelt ............... NO
    Groundwater ............ NO
    Flow Routing ........... YES
    Ponding Allowed ........ YES
    Water Quality .......... NO
  Infiltration Method ...... HORTON
  Flow Routing Method ...... DYNWAVE
  Surcharge Method ......... EXTRAN
  Starting Date ............ 08/28/2015 00:00:00
  Ending Date .............. 08/28/2015 23:40:00
  Antecedent Dry Days ...... 0.0
  Report Time Step ......... 00:01:00
  Wet Time Step ............ 00:01:00
  Dry Time Step ............ 00:01:00
  Routing Time Step ........ 5.00 sec
  Variable Time Step ....... YES
  Maximum Trials ........... 8
  Number of Threads ........ 1
  Head Tolerance ........... 0.001500 m
  
  
  **************************        Volume         Depth
  Runoff Quantity Continuity     hectare-m            mm
  **************************     ---------       -------
  Total Precipitation ......         2.216        12.297
  Evaporation Loss .........         0.000         0.000
  Infiltration Loss ........         0.000         0.000
  Surface Runoff ...........         2.055        11.403
  Final Storage ............         0.164         0.911
  Continuity Error (%) .....        -0.136
  
  
  **************************        Volume        Volume
  Flow Routing Continuity        hectare-m      10^6 ltr
  **************************     ---------     ---------
  Dry Weather Inflow .......         0.758         7.576
  Wet Weather Inflow .......         2.052        20.525
  Groundwater Inflow .......         0.000         0.000
  RDII Inflow ..............         0.000         0.000
  External Inflow ..........         0.000         0.000
  External Outflow .........         1.148        11.478
  Flooding Loss ............         0.483         4.832
  Evaporation Loss .........         0.000         0.000
  Exfiltration Loss ........         0.000         0.000
  Initial Stored Volume ....         0.000         0.000
  Final Stored Volume ......         0.876         8.763
  Continuity Error (%) .....        10.773
  
  
  *************************
  Highest Continuity Errors
  *************************
  Node T2 (25.78%)
  Node T3 (18.15%)
  Node T4 (16.89%)
  Node T5 (15.47%)
  Node T6 (13.23%)
  
  
  ***************************
  Time-Step Critical Elements
  ***************************
  None
  
  
  ********************************
  Highest Flow Instability Indexes
  ********************************
  Link C15 (1)
  
  
  *************************
  Routing Time Step Summary
  *************************
  Minimum Time Step           :     4.50 sec
  Average Time Step           :     5.00 sec
  Maximum Time Step           :     5.00 sec
  Percent in Steady State     :     0.00
  Average Iterations per Step :     2.00
  Percent Not Converging      :     0.00
  
  
  ***************************
  Subcatchment Runoff Summary
  ***************************
  
  ------------------------------------------------------------------------------------------------------------------------------
                            Total      Total      Total      Total     Imperv       Perv      Total       Total     Peak  Runoff
                           Precip      Runon       Evap      Infil     Runoff     Runoff     Runoff      Runoff   Runoff   Coeff
  Subcatchment                 mm         mm         mm         mm         mm         mm         mm    10^6 ltr      CMS
  ------------------------------------------------------------------------------------------------------------------------------
  SC01                      13.93       0.00       0.00       0.00      13.19       0.00      13.19        4.35     0.31   0.947
  SC02                      12.91       0.00       0.00       0.00      12.17       0.00      12.17        2.77     0.19   0.943
  SC03                      10.37       0.00       0.00       0.00       9.77       0.00       9.77        1.76     0.19   0.942
  SC04                      12.91       0.00       0.00       0.00      11.68       0.00      11.68        0.81     0.05   0.905
  SC05                      13.93       0.00       0.00       0.00      13.14       0.00      13.14        2.05     0.14   0.943
  SC06                      11.51       0.00       0.00       0.00      10.32       0.00      10.32        3.36     0.17   0.897
  SC07                      12.91       0.00       0.00       0.00      11.69       0.00      11.69        0.56     0.03   0.905
  SC08                      10.37       0.00       0.00       0.00       9.42       0.00       9.42        2.64     0.23   0.909
  SC09                      11.51       0.00       0.00       0.00      10.59       0.00      10.59        0.73     0.05   0.920
  SC010                     13.93       0.00       0.00       0.00      13.01       0.00      13.01        1.53     0.10   0.934
  
  
  ******************
  Node Depth Summary
  ******************
  
  ---------------------------------------------------------------------------------
                                 Average  Maximum  Maximum  Time of Max    Reported
                                   Depth    Depth      HGL   Occurrence   Max Depth
  Node                 Type       Meters   Meters   Meters  days hr:min      Meters
  ---------------------------------------------------------------------------------
  J1                   JUNCTION     0.06     0.13    34.13     0  13:47        0.13
  J3                   JUNCTION     0.08     0.11    18.11     0  15:41        0.11
  CSO7                 JUNCTION     0.08     0.15    34.15     0  18:01        0.15
  J5                   JUNCTION     0.05     0.10    32.10     0  18:12        0.10
  CSO9                 JUNCTION     0.08     0.20    40.20     0  13:52        0.20
  J8                   JUNCTION     0.08     0.16    36.16     0  14:22        0.16
  CSO8                 JUNCTION     0.08     0.32    32.32     0  15:01        0.31
  J10                  JUNCTION     0.07     0.19    29.19     0  15:03        0.19
  J13                  JUNCTION     0.05     0.12    29.12     0  18:02        0.12
  J15                  JUNCTION     0.12     0.24    15.24     0  18:03        0.24
  J16                  JUNCTION     0.06     0.14    30.14     0  13:47        0.14
  CSO10                JUNCTION     0.10     0.26    30.26     0  17:56        0.26
  J12                  JUNCTION     0.23     1.01    27.01     0  21:54        1.01
  J4                   JUNCTION     0.09     0.18    33.18     0  18:13        0.18
  J6                   JUNCTION     0.04     0.07    25.07     0  19:07        0.07
  J2                   JUNCTION     0.05     0.08    25.08     0  17:32        0.08
  J19                  JUNCTION     0.11     0.17     8.17     0  15:48        0.17
  J9                   JUNCTION     0.07     0.11    29.11     0  17:02        0.11
  J14                  JUNCTION     0.07     0.12    20.12     0  15:40        0.12
  J17                  JUNCTION     0.04     0.08    20.08     0  23:12        0.08
  J7                   JUNCTION     0.06     0.14    39.14     0  13:58        0.14
  J11                  JUNCTION     0.07     0.20    31.20     0  15:03        0.20
  J18                  JUNCTION     0.05     0.11    29.11     0  17:58        0.11
  Out_to_WWTP          OUTFALL      0.11     0.17     6.17     0  19:33        0.17
  T5                   STORAGE      2.11     5.00    32.00     0  16:48        5.00
  T4                   STORAGE      2.07     5.00    32.00     0  18:20        5.00
  T6                   STORAGE      2.55     5.00    36.00     0  14:32        5.00
  T3                   STORAGE      1.66     5.00    27.00     0  21:49        5.00
  T2                   STORAGE      1.86     5.00    26.00     0  18:59        5.00
  T1                   STORAGE      2.06     5.00    15.00     0  15:47        5.00
  
  
  *******************
  Node Inflow Summary
  *******************
  
  -------------------------------------------------------------------------------------------------
                                  Maximum  Maximum                  Lateral       Total        Flow
                                  Lateral    Total  Time of Max      Inflow      Inflow     Balance
                                   Inflow   Inflow   Occurrence      Volume      Volume       Error
  Node                 Type           CMS      CMS  days hr:min    10^6 ltr    10^6 ltr     Percent
  -------------------------------------------------------------------------------------------------
  J1                   JUNCTION     0.162    0.162     0  13:46        3.14        3.14       0.206
  J3                   JUNCTION     0.000    0.131     0  15:40           0        5.73       0.498
  CSO7                 JUNCTION     0.039    0.039     0  18:01        1.12        1.12       0.080
  J5                   JUNCTION     0.050    0.086     0  18:11        1.05        2.17       0.311
  CSO9                 JUNCTION     0.055    0.055     0  13:51        1.11        1.11       0.115
  J8                   JUNCTION     0.198    0.241     0  14:21        5.19        6.29       0.342
  CSO8                 JUNCTION     0.244    0.244     0  15:01        3.08        3.08       0.100
  J10                  JUNCTION     0.202    0.386     0  15:01        2.51        5.56       0.621
  J13                  JUNCTION     0.200    0.200     0  18:01        3.68        3.68       0.249
  J15                  JUNCTION     0.000    0.538     0  17:57           0          14       0.861
  J16                  JUNCTION     0.328    0.328     0  13:46        5.42        5.42       0.210
  CSO10                JUNCTION     0.103    0.103     0  17:56         1.8         1.8       0.143
  J12                  JUNCTION     0.000    0.399     0  15:03           0        8.43      10.870
  J4                   JUNCTION     0.000    0.038     0  18:01           0        1.12       0.576
  J6                   JUNCTION     0.000    0.028     0  18:21           0        1.05       0.403
  J2                   JUNCTION     0.000    0.039     0  16:48           0        1.77       0.319
  J19                  JUNCTION     0.000    0.271     0  15:47           0        11.5       0.107
  J9                   JUNCTION     0.000    0.075     0  15:40           0        2.92       0.593
  J14                  JUNCTION     0.000    0.083     0  15:40           0        2.92       0.150
  J17                  JUNCTION     0.000    0.033     0  19:00           0        1.15       0.566
  J7                   JUNCTION     0.000    0.053     0  13:52           0        1.11       0.689
  J11                  JUNCTION     0.000    0.242     0  15:01           0        3.08       0.973
  J18                  JUNCTION     0.000    0.099     0  17:57           0         1.8       0.514
  Out_to_WWTP          OUTFALL      0.000    0.271     0  15:48           0        11.5       0.000
  T5                   STORAGE      0.000    0.152     0  13:47           0        3.13      18.301
  T4                   STORAGE      0.000    0.084     0  18:12           0        2.16      20.325
  T6                   STORAGE      0.000    0.234     0  14:22           0        6.27      15.244
  T3                   STORAGE      0.000    0.391     0  15:08           0         7.6      22.168
  T2                   STORAGE      0.000    0.186     0  18:02           0        3.67      34.729
  T1                   STORAGE      0.000    0.513     0  18:03           0        13.9       5.940
  
  
  **********************
  Node Surcharge Summary
  **********************
  
  No nodes were surcharged.
  
  
  *********************
  Node Flooding Summary
  *********************
  
  Flooding refers to all water that overflows a node, whether it ponds or not.
  --------------------------------------------------------------------------
                                                             Total   Maximum
                                 Maximum   Time of Max       Flood    Ponded
                        Hours       Rate    Occurrence      Volume     Depth
  Node                 Flooded       CMS   days hr:min    10^6 ltr    Meters
  --------------------------------------------------------------------------
  T5                      3.56     0.106      0  17:57       0.391     0.000
  T4                      3.94     0.052      0  18:20       0.242     0.000
  T6                      7.40     0.195      0  14:32       1.929     0.000
  T3                      1.73     0.267      0  23:40       0.699     0.000
  T2                      4.28     0.091      0  20:47       0.573     0.000
  T1                      3.34     0.242      0  18:03       0.999     0.000
  
  
  **********************
  Storage Volume Summary
  **********************
  
  --------------------------------------------------------------------------------------------------
                         Average     Avg  Evap Exfil       Maximum     Max    Time of Max    Maximum
                          Volume    Pcnt  Pcnt  Pcnt        Volume    Pcnt     Occurrence    Outflow
  Storage Unit           1000 m3    Full  Loss  Loss       1000 m3    Full    days hr:min        CMS
  --------------------------------------------------------------------------------------------------
  T5                       0.211      42     0     0         0.500     100       0  16:48      0.039
  T4                       0.207      41     0     0         0.500     100       0  18:20      0.028
  T6                       0.307      51     0     0         0.600     100       0  14:32      0.075
  T3                       0.865      33     0     0         2.600     100       0  21:49      0.083
  T2                       0.372      37     0     0         1.000     100       0  18:59      0.033
  T1                       0.288      41     0     0         0.700     100       0  15:47      0.271
  
  
  ***********************
  Outfall Loading Summary
  ***********************
  
  -----------------------------------------------------------
                         Flow       Avg       Max       Total
                         Freq      Flow      Flow      Volume
  Outfall Node           Pcnt       CMS       CMS    10^6 ltr
  -----------------------------------------------------------
  Out_to_WWTP           99.43     0.136     0.271      11.478
  -----------------------------------------------------------
  System                99.43     0.136     0.271      11.478
  
  
  ********************
  Link Flow Summary
  ********************
  
  -----------------------------------------------------------------------------
                                 Maximum  Time of Max   Maximum    Max/    Max/
                                  |Flow|   Occurrence   |Veloc|    Full    Full
  Link                 Type          CMS  days hr:min     m/sec    Flow   Depth
  -----------------------------------------------------------------------------
  C1                   CONDUIT     0.039     0  17:32      1.07    0.01    0.10
  C6                   CONDUIT     0.037     0  18:13      1.16    0.59    0.46
  C2                   CONDUIT     0.028     0  19:06      1.01    0.03    0.16
  C9                   CONDUIT     0.049     0  13:58      0.99    0.17    0.30
  C16                  CONDUIT     0.217     0  15:03      1.38    0.02    0.10
  C3                   CONDUIT     0.083     0  15:40      1.57    0.03    0.12
  C19                  CONDUIT     0.033     0  19:51      0.65    0.01    0.16
  C11                  CONDUIT     0.130     0  15:41      1.38    0.01    0.09
  C20                  CONDUIT     0.306     0  13:47      2.32    0.01    0.09
  C22                  CONDUIT     0.093     0  17:58      1.18    0.04    0.22
  C12                  CONDUIT     0.075     0  17:02      0.91    0.01    0.28
  C17                  CONDUIT     0.369     0  15:03      2.33    0.02    0.29
  C10                  CONDUIT     0.234     0  14:22      0.94    0.02    0.55
  C13                  CONDUIT     0.391     0  15:08      0.77    0.02    0.75
  C18                  CONDUIT     0.186     0  18:02      1.01    0.01    0.53
  C23                  CONDUIT     0.513     0  18:03      0.85    0.06    0.58
  C4                   CONDUIT     0.152     0  13:47      1.13    0.04    0.57
  C7                   CONDUIT     0.084     0  18:12      0.82    0.02    0.55
  C14                  CONDUIT     0.271     0  15:48      2.08    0.02    0.09
  C5                   CONDUIT     0.038     0  18:01      1.12    0.66    0.64
  C8                   CONDUIT     0.053     0  13:52      1.28    0.66    0.52
  C15                  CONDUIT     0.242     0  15:01      2.61    0.77    0.56
  C21                  CONDUIT     0.099     0  17:57      1.63    0.57    0.42
  V4                   ORIFICE     0.028     0  18:21                      0.35
  V5                   ORIFICE     0.039     0  16:48                      1.00
  V1                   ORIFICE     0.271     0  15:47                      1.00
  V6                   ORIFICE     0.075     0  15:40                      0.43
  V3                   ORIFICE     0.083     0  15:40                      0.65
  V2                   ORIFICE     0.033     0  19:00                      0.24
  
  
  ***************************
  Flow Classification Summary
  ***************************
  
  -------------------------------------------------------------------------------------
                      Adjusted    ---------- Fraction of Time in Flow Class ---------- 
                       /Actual         Up    Down  Sub   Sup   Up    Down  Norm  Inlet 
  Conduit               Length    Dry  Dry   Dry   Crit  Crit  Crit  Crit  Ltd   Ctrl  
  -------------------------------------------------------------------------------------
  C1                      1.00   0.00  0.00  0.00  0.01  0.99  0.00  0.00  0.96  0.00
  C6                      1.00   0.00  0.00  0.00  0.01  0.99  0.00  0.00  0.00  0.00
  C2                      1.00   0.00  0.00  0.00  0.61  0.39  0.00  0.00  0.98  0.00
  C9                      1.00   0.00  0.00  0.00  1.00  0.00  0.00  0.00  1.00  0.00
  C16                     1.00   0.00  0.25  0.00  0.36  0.38  0.00  0.00  0.34  0.00
  C3                      1.00   0.00  0.00  0.00  0.04  0.96  0.00  0.00  0.53  0.00
  C19                     1.00   0.00  0.00  0.00  1.00  0.00  0.00  0.00  1.00  0.00
  C11                     1.00   0.00  0.00  0.00  0.18  0.82  0.00  0.00  1.00  0.00
  C20                     1.00   0.00  0.00  0.00  0.56  0.44  0.00  0.00  0.99  0.00
  C22                     1.00   0.00  0.00  0.00  0.96  0.04  0.00  0.00  1.00  0.00
  C12                     1.00   0.00  0.00  0.00  0.93  0.07  0.00  0.00  0.94  0.00
  C17                     1.00   0.00  0.00  0.00  0.42  0.58  0.00  0.00  0.98  0.00
  C10                     1.00   0.00  0.00  0.00  0.97  0.03  0.00  0.00  0.98  0.00
  C13                     1.00   0.00  0.00  0.00  0.85  0.15  0.00  0.00  0.65  0.00
  C18                     1.00   0.00  0.00  0.00  0.95  0.05  0.00  0.00  0.98  0.00
  C23                     1.00   0.00  0.00  0.00  0.77  0.23  0.00  0.00  0.96  0.00
  C4                      1.00   0.00  0.00  0.00  0.82  0.18  0.00  0.00  0.98  0.00
  C7                      1.00   0.00  0.00  0.00  0.95  0.05  0.00  0.00  0.97  0.00
  C14                     1.00   0.00  0.00  0.00  0.00  1.00  0.00  0.00  0.39  0.00
  C5                      1.00   0.00  0.00  0.00  0.90  0.10  0.00  0.00  0.99  0.00
  C8                      1.00   0.00  0.00  0.00  0.13  0.87  0.00  0.00  0.00  0.00
  C15                     1.00   0.25  0.00  0.00  0.00  0.75  0.00  0.00  0.00  0.00
  C21                     1.00   0.00  0.00  0.00  0.00  1.00  0.00  0.00  0.00  0.00
  
  
  *************************
  Conduit Surcharge Summary
  *************************
  
  ----------------------------------------------------------------------------
                                                           Hours        Hours 
                         --------- Hours Full --------   Above Full   Capacity
  Conduit                Both Ends  Upstream  Dnstream   Normal Flow   Limited
  ----------------------------------------------------------------------------
  C10                         0.01      0.01     13.09      0.01         0.01
  C13                         0.01      0.01      8.26      0.01         0.01
  C18                         0.01      0.01      8.74      0.01         0.01
  C23                         0.01      0.01      9.89      0.01         0.01
  C4                          0.01      0.01     10.81      0.01         0.01
  C7                          0.01      0.01     12.45      0.01         0.01
  

  Analysis begun on:  Sun Sep 19 13:21:14 2021
  Analysis ended on:  Sun Sep 19 13:21:14 2021
  Total elapsed time: < 1 sec