
  EPA STORM WATER MANAGEMENT MODEL - VERSION 5.1 (Build 5.3.0.dev0)
  --------------------------------------------------------------

  
  *********************************************************
  NOTE: The summary statistics displayed in this report are
  based on results found at every computational time step,  
  not just on results from each reporting time step.
  *********************************************************
  
  ****************
  Analysis Options
  ****************
  Flow Units ............... CMS
  Process Models:
    Rainfall/Runoff ........ YES
    RDII ................... NO
    Snowmelt ............... NO
    Groundwater ............ NO
    Flow Routing ........... YES
    Ponding Allowed ........ YES
    Water Quality .......... NO
  Infiltration Method ...... HORTON
  Flow Routing Method ...... DYNWAVE
  Surcharge Method ......... EXTRAN
  Starting Date ............ 08/28/2015 08:00:00
  Ending Date .............. 08/28/2015 15:50:00
  Antecedent Dry Days ...... 0.0
  Report Time Step ......... 00:01:00
  Wet Time Step ............ 00:01:00
  Dry Time Step ............ 00:01:00
  Routing Time Step ........ 5.00 sec
  Variable Time Step ....... YES
  Maximum Trials ........... 8
  Number of Threads ........ 1
  Head Tolerance ........... 0.001500 m
  
  
  **************************        Volume         Depth
  Runoff Quantity Continuity     hectare-m            mm
  **************************     ---------       -------
  Total Precipitation ......         3.026        16.792
  Evaporation Loss .........         0.000         0.000
  Infiltration Loss ........         0.000         0.000
  Surface Runoff ...........         3.002        16.660
  Final Storage ............         0.024         0.135
  Continuity Error (%) .....        -0.012
  
  
  **************************        Volume        Volume
  Flow Routing Continuity        hectare-m      10^6 ltr
  **************************     ---------     ---------
  Dry Weather Inflow .......         0.396         3.955
  Wet Weather Inflow .......         3.002        30.021
  Groundwater Inflow .......         0.000         0.000
  RDII Inflow ..............         0.000         0.000
  External Inflow ..........         0.000         0.000
  External Outflow .........         0.621         6.213
  Flooding Loss ............         1.699        16.989
  Evaporation Loss .........         0.000         0.000
  Exfiltration Loss ........         0.000         0.000
  Initial Stored Volume ....         0.000         0.000
  Final Stored Volume ......         0.808         8.081
  Continuity Error (%) .....         7.927
  
  
  *************************
  Highest Continuity Errors
  *************************
  Node T2 (21.01%)
  Node T4 (15.99%)
  Node T3 (15.81%)
  Node T5 (12.60%)
  Node T6 (10.79%)
  
  
  ***************************
  Time-Step Critical Elements
  ***************************
  None
  
  
  ********************************
  Highest Flow Instability Indexes
  ********************************
  All links are stable.
  
  
  *************************
  Routing Time Step Summary
  *************************
  Minimum Time Step           :     4.50 sec
  Average Time Step           :     5.00 sec
  Maximum Time Step           :     5.00 sec
  Percent in Steady State     :     0.00
  Average Iterations per Step :     2.20
  Percent Not Converging      :     0.53
  
  
  ***************************
  Subcatchment Runoff Summary
  ***************************
  
  ------------------------------------------------------------------------------------------------------------------------------
                            Total      Total      Total      Total     Imperv       Perv      Total       Total     Peak  Runoff
                           Precip      Runon       Evap      Infil     Runoff     Runoff     Runoff      Runoff   Runoff   Coeff
  Subcatchment                 mm         mm         mm         mm         mm         mm         mm    10^6 ltr      CMS
  ------------------------------------------------------------------------------------------------------------------------------
  SC01                      16.79       0.00       0.00       0.00      16.71       0.00      16.71        5.51     1.14   0.995
  SC02                      16.79       0.00       0.00       0.00      16.70       0.00      16.70        3.80     0.78   0.995
  SC03                      16.79       0.00       0.00       0.00      16.73       0.00      16.73        3.01     0.66   0.996
  SC04                      16.79       0.00       0.00       0.00      16.59       0.00      16.59        1.14     0.20   0.988
  SC05                      16.79       0.00       0.00       0.00      16.70       0.00      16.70        2.61     0.53   0.995
  SC06                      16.79       0.00       0.00       0.00      16.53       0.00      16.53        5.38     0.92   0.985
  SC07                      16.79       0.00       0.00       0.00      16.59       0.00      16.59        0.79     0.14   0.988
  SC08                      16.79       0.00       0.00       0.00      16.67       0.00      16.67        4.67     0.90   0.993
  SC09                      16.79       0.00       0.00       0.00      16.65       0.00      16.65        1.15     0.21   0.991
  SC010                     16.79       0.00       0.00       0.00      16.68       0.00      16.68        1.96     0.38   0.993
  
  
  ******************
  Node Depth Summary
  ******************
  
  ---------------------------------------------------------------------------------
                                 Average  Maximum  Maximum  Time of Max    Reported
                                   Depth    Depth      HGL   Occurrence   Max Depth
  Node                 Type       Meters   Meters   Meters  days hr:min      Meters
  ---------------------------------------------------------------------------------
  J1                   JUNCTION     0.09     0.25    34.25     0  03:01        0.25
  J3                   JUNCTION     0.11     0.14    18.14     0  03:48        0.14
  CSO7                 JUNCTION     0.37     1.20    35.20     0  01:20        1.20
  J5                   JUNCTION     0.08     0.18    32.18     0  03:01        0.18
  CSO9                 JUNCTION     0.52     2.00    42.00     0  01:19        2.00
  J8                   JUNCTION     0.14     0.33    36.33     0  03:01        0.33
  CSO8                 JUNCTION     0.53     2.00    34.00     0  01:18        2.00
  J10                  JUNCTION     0.13     0.32    29.32     0  01:26        0.32
  J13                  JUNCTION     0.08     0.23    29.23     0  03:01        0.23
  J15                  JUNCTION     0.20     0.40    15.40     0  03:02        0.40
  J16                  JUNCTION     0.09     0.26    30.26     0  03:01        0.26
  CSO10                JUNCTION     0.29     1.00    31.00     0  01:17        1.00
  J12                  JUNCTION     0.72     1.02    27.02     0  02:59        1.02
  J4                   JUNCTION     0.26     1.43    34.43     0  01:22        0.76
  J6                   JUNCTION     0.06     0.07    25.07     0  03:20        0.07
  J2                   JUNCTION     0.07     0.08    25.08     0  02:39        0.08
  J19                  JUNCTION     0.15     0.17     8.17     0  01:41        0.17
  J9                   JUNCTION     0.09     0.11    29.11     0  03:28        0.11
  J14                  JUNCTION     0.12     0.15    20.15     0  05:51        0.15
  J17                  JUNCTION     0.06     0.08    20.08     0  03:15        0.08
  J7                   JUNCTION     0.11     0.23    39.23     0  02:05        0.23
  J11                  JUNCTION     0.13     0.30    31.30     0  02:06        0.30
  J18                  JUNCTION     0.07     0.16    29.16     0  01:57        0.16
  Out_to_WWTP          OUTFALL      0.15     0.17     6.17     0  04:35        0.17
  T5                   STORAGE      3.87     5.00    32.00     0  01:51        5.00
  T4                   STORAGE      3.82     5.00    32.00     0  02:27        5.00
  T6                   STORAGE      4.01     5.00    36.00     0  01:47        5.00
  T3                   STORAGE      3.81     5.00    27.00     0  02:43        5.00
  T2                   STORAGE      3.91     5.00    26.00     0  02:13        5.00
  T1                   STORAGE      3.90     5.00    15.00     0  01:40        5.00
  
  
  *******************
  Node Inflow Summary
  *******************
  
  -------------------------------------------------------------------------------------------------
                                  Maximum  Maximum                  Lateral       Total        Flow
                                  Lateral    Total  Time of Max      Inflow      Inflow     Balance
                                   Inflow   Inflow   Occurrence      Volume      Volume       Error
  Node                 Type           CMS      CMS  days hr:min    10^6 ltr    10^6 ltr     Percent
  -------------------------------------------------------------------------------------------------
  J1                   JUNCTION     0.554    0.554     0  03:01        3.17        3.17      -0.007
  J3                   JUNCTION     0.000    0.191     0  03:12           0         3.9       0.999
  CSO7                 JUNCTION     0.151    0.151     0  03:01        1.08        1.08       0.051
  J5                   JUNCTION     0.208    0.280     0  03:01        1.27        2.12       0.049
  CSO9                 JUNCTION     0.222    0.222     0  03:01        1.34        1.34       0.035
  J8                   JUNCTION     0.956    1.083     0  03:01        6.32        7.49       0.046
  CSO8                 JUNCTION     0.915    0.915     0  03:01        4.96        4.96       0.009
  J10                  JUNCTION     0.677    1.163     0  03:01         3.4        7.51      -0.045
  J13                  JUNCTION     0.795    0.795     0  03:01        4.27        4.27      -0.189
  J15                  JUNCTION     0.000    1.511     0  03:01           0        12.4       0.652
  J16                  JUNCTION     1.164    1.164     0  03:01        6.07        6.07      -0.038
  CSO10                JUNCTION     0.388    0.388     0  03:01         2.1         2.1       0.014
  J12                  JUNCTION     0.000    1.210     0  03:01           0        9.12       7.387
  J4                   JUNCTION     0.000    0.082     0  01:20           0       0.852       0.382
  J6                   JUNCTION     0.000    0.028     0  02:28           0       0.592       0.681
  J2                   JUNCTION     0.000    0.039     0  01:51           0       0.913       0.553
  J19                  JUNCTION     0.000    0.271     0  01:40           0        6.23       0.191
  J9                   JUNCTION     0.000    0.075     0  01:47           0        1.63       1.139
  J14                  JUNCTION     0.000    0.124     0  03:10           0        2.41       0.303
  J17                  JUNCTION     0.000    0.033     0  02:13           0        0.71       0.598
  J7                   JUNCTION     0.000    0.127     0  02:05           0        1.17       0.269
  J11                  JUNCTION     0.000    0.487     0  02:05           0        4.12       0.175
  J18                  JUNCTION     0.000    0.202     0  01:57           0        1.73       0.028
  Out_to_WWTP          OUTFALL      0.000    0.271     0  01:42           0        6.21       0.000
  T5                   STORAGE      0.000    0.547     0  03:01           0        3.17      14.419
  T4                   STORAGE      0.000    0.276     0  03:01           0        2.12      19.034
  T6                   STORAGE      0.000    1.062     0  03:01           0        7.49      12.097
  T3                   STORAGE      0.000    1.290     0  03:03           0        8.49      18.775
  T2                   STORAGE      0.000    0.783     0  03:01           0        4.28      26.591
  T1                   STORAGE      0.000    1.427     0  03:02           0        12.3       6.078
  
  
  **********************
  Node Surcharge Summary
  **********************
  
  Surcharging occurs when water rises above the top of the highest conduit.
  ---------------------------------------------------------------------
                                               Max. Height   Min. Depth
                                   Hours       Above Crown    Below Rim
  Node                 Type      Surcharged         Meters       Meters
  ---------------------------------------------------------------------
  CSO7                 JUNCTION        2.05          0.945        0.000
  CSO9                 JUNCTION        2.01          1.682        0.000
  CSO8                 JUNCTION        1.99          1.547        0.000
  CSO10                JUNCTION        1.89          0.560        0.000
  J4                   JUNCTION        2.03          1.129        0.571
  
  
  *********************
  Node Flooding Summary
  *********************
  
  Flooding refers to all water that overflows a node, whether it ponds or not.
  --------------------------------------------------------------------------
                                                             Total   Maximum
                                 Maximum   Time of Max       Flood    Ponded
                        Hours       Rate    Occurrence      Volume     Depth
  Node                 Flooded       CMS   days hr:min    10^6 ltr    Meters
  --------------------------------------------------------------------------
  CSO7                    1.92     0.079      0  03:01       0.226     0.000
  CSO9                    1.25     0.095      0  03:01       0.172     0.000
  CSO8                    1.30     0.429      0  03:01       0.844     0.000
  CSO10                   1.33     0.186      0  03:01       0.371     0.000
  T5                      2.27     0.507      0  03:01       1.452     0.000
  T4                      2.54     0.248      0  03:01       0.724     0.000
  T6                      3.47     0.987      0  03:01       4.479     0.000
  T3                      1.76     1.212      0  03:02       2.228     0.000
  T2                      2.78     0.750      0  03:01       1.726     0.000
  T1                      2.78     1.156      0  03:02       4.766     0.000
  
  
  **********************
  Storage Volume Summary
  **********************
  
  --------------------------------------------------------------------------------------------------
                         Average     Avg  Evap Exfil       Maximum     Max    Time of Max    Maximum
                          Volume    Pcnt  Pcnt  Pcnt        Volume    Pcnt     Occurrence    Outflow
  Storage Unit           1000 m3    Full  Loss  Loss       1000 m3    Full    days hr:min        CMS
  --------------------------------------------------------------------------------------------------
  T5                       0.387      77     0     0         0.500     100       0  01:51      0.039
  T4                       0.382      76     0     0         0.500     100       0  02:27      0.028
  T6                       0.482      80     0     0         0.600     100       0  01:47      0.075
  T3                       1.981      76     0     0         2.600     100       0  02:43      0.124
  T2                       0.782      78     0     0         1.000     100       0  02:13      0.033
  T1                       0.546      78     0     0         0.700     100       0  01:40      0.271
  
  
  ***********************
  Outfall Loading Summary
  ***********************
  
  -----------------------------------------------------------
                         Flow       Avg       Max       Total
                         Freq      Flow      Flow      Volume
  Outfall Node           Pcnt       CMS       CMS    10^6 ltr
  -----------------------------------------------------------
  Out_to_WWTP           99.01     0.223     0.271       6.213
  -----------------------------------------------------------
  System                99.01     0.223     0.271       6.213
  
  
  ********************
  Link Flow Summary
  ********************
  
  -----------------------------------------------------------------------------
                                 Maximum  Time of Max   Maximum    Max/    Max/
                                  |Flow|   Occurrence   |Veloc|    Full    Full
  Link                 Type          CMS  days hr:min     m/sec    Flow   Depth
  -----------------------------------------------------------------------------
  C1                   CONDUIT     0.039     0  02:39      1.07    0.01    0.11
  C6                   CONDUIT     0.072     0  03:01      1.29    1.15    0.79
  C2                   CONDUIT     0.028     0  03:16      1.01    0.03    0.18
  C9                   CONDUIT     0.127     0  02:05      1.28    0.43    0.57
  C16                  CONDUIT     0.488     0  02:52      1.80    0.05    0.15
  C3                   CONDUIT     0.124     0  03:12      1.83    0.05    0.14
  C19                  CONDUIT     0.033     0  03:15      0.64    0.01    0.24
  C11                  CONDUIT     0.191     0  03:48      1.75    0.01    0.13
  C20                  CONDUIT     1.148     0  03:01      3.52    0.04    0.16
  C22                  CONDUIT     0.202     0  01:57      1.63    0.09    0.35
  C12                  CONDUIT     0.075     0  03:28      0.59    0.01    0.28
  C17                  CONDUIT     1.145     0  01:26      3.36    0.06    0.34
  C10                  CONDUIT     1.062     0  03:01      1.66    0.11    0.61
  C13                  CONDUIT     1.290     0  03:03      2.02    0.08    0.76
  C18                  CONDUIT     0.783     0  03:01      1.72    0.03    0.56
  C23                  CONDUIT     1.427     0  03:02      1.64    0.16    0.63
  C4                   CONDUIT     0.547     0  03:01      1.98    0.13    0.62
  C7                   CONDUIT     0.276     0  03:01      1.43    0.07    0.59
  C14                  CONDUIT     0.271     0  01:42      2.08    0.02    0.09
  C5                   CONDUIT     0.082     0  01:20      1.60    1.40    1.00
  C8                   CONDUIT     0.127     0  02:05      1.80    1.60    0.86
  C15                  CONDUIT     0.487     0  02:05      3.48    1.55    0.83
  C21                  CONDUIT     0.202     0  01:57      1.85    1.16    0.69
  V4                   ORIFICE     0.028     0  02:28                      0.35
  V5                   ORIFICE     0.039     0  01:51                      1.00
  V1                   ORIFICE     0.271     0  01:40                      1.00
  V6                   ORIFICE     0.075     0  01:47                      0.43
  V3                   ORIFICE     0.124     0  03:10                      0.65
  V2                   ORIFICE     0.033     0  02:13                      0.24
  
  
  ***************************
  Flow Classification Summary
  ***************************
  
  -------------------------------------------------------------------------------------
                      Adjusted    ---------- Fraction of Time in Flow Class ---------- 
                       /Actual         Up    Down  Sub   Sup   Up    Down  Norm  Inlet 
  Conduit               Length    Dry  Dry   Dry   Crit  Crit  Crit  Crit  Ltd   Ctrl  
  -------------------------------------------------------------------------------------
  C1                      1.00   0.00  0.00  0.00  0.15  0.85  0.00  0.00  0.94  0.00
  C6                      1.00   0.00  0.00  0.00  0.28  0.72  0.00  0.00  0.00  0.00
  C2                      1.00   0.00  0.00  0.00  0.56  0.44  0.00  0.00  0.95  0.00
  C9                      1.00   0.00  0.00  0.00  1.00  0.00  0.00  0.00  1.00  0.00
  C16                     1.00   0.00  0.00  0.00  0.52  0.48  0.00  0.00  0.40  0.00
  C3                      1.00   0.00  0.00  0.00  0.05  0.95  0.00  0.00  0.37  0.00
  C19                     1.00   0.00  0.00  0.00  1.00  0.00  0.00  0.00  1.00  0.00
  C11                     1.00   0.00  0.00  0.00  0.37  0.63  0.00  0.00  1.00  0.00
  C20                     1.00   0.00  0.00  0.00  0.54  0.46  0.00  0.00  0.97  0.00
  C22                     1.00   0.00  0.00  0.00  0.76  0.24  0.00  0.00  1.00  0.00
  C12                     1.00   0.00  0.00  0.00  1.00  0.00  0.00  0.00  1.00  0.00
  C17                     1.00   0.00  0.00  0.00  0.69  0.31  0.00  0.00  0.93  0.00
  C10                     1.00   0.00  0.00  0.00  0.96  0.04  0.00  0.00  0.97  0.00
  C13                     1.00   0.00  0.00  0.00  0.85  0.15  0.00  0.00  0.20  0.00
  C18                     1.00   0.00  0.00  0.00  0.92  0.08  0.00  0.00  0.97  0.00
  C23                     1.00   0.00  0.00  0.00  0.85  0.15  0.00  0.00  0.94  0.00
  C4                      1.00   0.00  0.00  0.00  0.96  0.04  0.00  0.00  0.98  0.00
  C7                      1.00   0.00  0.00  0.00  0.94  0.06  0.00  0.00  0.97  0.00
  C14                     1.00   0.00  0.00  0.00  0.00  0.99  0.00  0.00  0.39  0.00
  C5                      1.00   0.00  0.00  0.00  0.93  0.07  0.00  0.00  0.69  0.00
  C8                      1.00   0.00  0.00  0.00  0.26  0.74  0.00  0.00  0.00  0.00
  C15                     1.00   0.00  0.00  0.00  0.00  1.00  0.00  0.00  0.00  0.00
  C21                     1.00   0.00  0.00  0.00  0.00  1.00  0.00  0.00  0.00  0.00
  
  
  *************************
  Conduit Surcharge Summary
  *************************
  
  ----------------------------------------------------------------------------
                                                           Hours        Hours 
                         --------- Hours Full --------   Above Full   Capacity
  Conduit                Both Ends  Upstream  Dnstream   Normal Flow   Limited
  ----------------------------------------------------------------------------
  C6                          0.01      2.03      0.01      1.93         0.01
  C10                         0.01      0.01      6.38      0.01         0.01
  C13                         0.01      0.01      6.14      0.01         0.01
  C18                         0.01      0.01      6.28      0.01         0.01
  C23                         0.01      0.01      6.42      0.01         0.01
  C4                          0.01      0.01      6.48      0.01         0.01
  C7                          0.01      0.01      6.34      0.01         0.01
  C5                          2.02      2.05      2.12      2.06         1.99
  C8                          0.01      2.01      0.01      2.02         0.01
  C15                         0.01      1.99      0.01      2.02         0.01
  C21                         0.01      1.89      0.01      1.89         0.01
  

  Analysis begun on:  Fri Sep  3 19:44:07 2021
  Analysis ended on:  Fri Sep  3 19:44:08 2021
  Total elapsed time: 00:00:01