
  EPA STORM WATER MANAGEMENT MODEL - VERSION 5.1 (Build 5.3.0.dev0)
  --------------------------------------------------------------

  
  *********************************************************
  NOTE: The summary statistics displayed in this report are
  based on results found at every computational time step,  
  not just on results from each reporting time step.
  *********************************************************
  
  ****************
  Analysis Options
  ****************
  Flow Units ............... CMS
  Process Models:
    Rainfall/Runoff ........ YES
    RDII ................... NO
    Snowmelt ............... NO
    Groundwater ............ NO
    Flow Routing ........... YES
    Ponding Allowed ........ YES
    Water Quality .......... NO
  Infiltration Method ...... HORTON
  Flow Routing Method ...... DYNWAVE
  Surcharge Method ......... EXTRAN
  Starting Date ............ 08/28/2015 08:00:00
  Ending Date .............. 08/28/2015 15:50:00
  Antecedent Dry Days ...... 0.0
  Report Time Step ......... 00:01:00
  Wet Time Step ............ 00:01:00
  Dry Time Step ............ 00:01:00
  Routing Time Step ........ 5.00 sec
  Variable Time Step ....... YES
  Maximum Trials ........... 8
  Number of Threads ........ 1
  Head Tolerance ........... 0.001500 m
  
  
  **************************        Volume         Depth
  Runoff Quantity Continuity     hectare-m            mm
  **************************     ---------       -------
  Total Precipitation ......         2.787        15.465
  Evaporation Loss .........         0.000         0.000
  Infiltration Loss ........         0.000         0.000
  Surface Runoff ...........         2.763        15.335
  Final Storage ............         0.024         0.131
  Continuity Error (%) .....        -0.006
  
  
  **************************        Volume        Volume
  Flow Routing Continuity        hectare-m      10^6 ltr
  **************************     ---------     ---------
  Dry Weather Inflow .......         0.396         3.955
  Wet Weather Inflow .......         2.763        27.634
  Groundwater Inflow .......         0.000         0.000
  RDII Inflow ..............         0.000         0.000
  External Inflow ..........         0.000         0.000
  External Outflow .........         0.603         6.032
  Flooding Loss ............         1.483        14.834
  Evaporation Loss .........         0.000         0.000
  Exfiltration Loss ........         0.000         0.000
  Initial Stored Volume ....         0.000         0.000
  Final Stored Volume ......         0.805         8.051
  Continuity Error (%) .....         8.461
  
  
  *************************
  Highest Continuity Errors
  *************************
  Node T2 (22.53%)
  Node T3 (17.43%)
  Node T4 (17.05%)
  Node T5 (13.39%)
  Node T6 (11.58%)
  
  
  ***************************
  Time-Step Critical Elements
  ***************************
  None
  
  
  ********************************
  Highest Flow Instability Indexes
  ********************************
  All links are stable.
  
  
  *************************
  Routing Time Step Summary
  *************************
  Minimum Time Step           :     4.50 sec
  Average Time Step           :     5.00 sec
  Maximum Time Step           :     5.00 sec
  Percent in Steady State     :     0.00
  Average Iterations per Step :     2.19
  Percent Not Converging      :     0.60
  
  
  ***************************
  Subcatchment Runoff Summary
  ***************************
  
  ------------------------------------------------------------------------------------------------------------------------------
                            Total      Total      Total      Total     Imperv       Perv      Total       Total     Peak  Runoff
                           Precip      Runon       Evap      Infil     Runoff     Runoff     Runoff      Runoff   Runoff   Coeff
  Subcatchment                 mm         mm         mm         mm         mm         mm         mm    10^6 ltr      CMS
  ------------------------------------------------------------------------------------------------------------------------------
  SC01                      15.47       0.00       0.00       0.00      15.38       0.00      15.38        5.08     1.28   0.994
  SC02                      15.47       0.00       0.00       0.00      15.37       0.00      15.37        3.50     0.87   0.994
  SC03                      15.47       0.00       0.00       0.00      15.40       0.00      15.40        2.77     0.73   0.996
  SC04                      15.47       0.00       0.00       0.00      15.27       0.00      15.27        1.05     0.23   0.987
  SC05                      15.47       0.00       0.00       0.00      15.37       0.00      15.37        2.40     0.60   0.994
  SC06                      15.47       0.00       0.00       0.00      15.22       0.00      15.22        4.95     1.02   0.984
  SC07                      15.47       0.00       0.00       0.00      15.27       0.00      15.27        0.73     0.16   0.987
  SC08                      15.47       0.00       0.00       0.00      15.35       0.00      15.35        4.30     1.02   0.992
  SC09                      15.47       0.00       0.00       0.00      15.32       0.00      15.32        1.06     0.24   0.991
  SC010                     15.47       0.00       0.00       0.00      15.35       0.00      15.35        1.80     0.43   0.993
  
  
  ******************
  Node Depth Summary
  ******************
  
  ---------------------------------------------------------------------------------
                                 Average  Maximum  Maximum  Time of Max    Reported
                                   Depth    Depth      HGL   Occurrence   Max Depth
  Node                 Type       Meters   Meters   Meters  days hr:min      Meters
  ---------------------------------------------------------------------------------
  J1                   JUNCTION     0.09     0.26    34.26     0  02:07        0.26
  J3                   JUNCTION     0.11     0.14    18.14     0  03:38        0.14
  CSO7                 JUNCTION     0.30     1.20    35.20     0  01:43        1.20
  J5                   JUNCTION     0.08     0.19    32.19     0  02:10        0.19
  CSO9                 JUNCTION     0.43     2.00    42.00     0  01:46        2.00
  J8                   JUNCTION     0.14     0.35    36.35     0  02:12        0.35
  CSO8                 JUNCTION     0.44     2.00    34.00     0  01:43        2.00
  J10                  JUNCTION     0.12     0.33    29.33     0  02:06        0.33
  J13                  JUNCTION     0.08     0.25    29.25     0  02:07        0.25
  J15                  JUNCTION     0.20     0.43    15.43     0  02:10        0.43
  J16                  JUNCTION     0.09     0.28    30.28     0  02:06        0.28
  CSO10                JUNCTION     0.25     1.00    31.00     0  01:42        1.00
  J12                  JUNCTION     0.71     1.09    27.09     0  02:51        1.08
  J4                   JUNCTION     0.22     1.33    34.33     0  01:43        0.76
  J6                   JUNCTION     0.06     0.07    25.07     0  03:49        0.07
  J2                   JUNCTION     0.07     0.08    25.08     0  02:57        0.08
  J19                  JUNCTION     0.15     0.17     8.17     0  02:01        0.17
  J9                   JUNCTION     0.09     0.11    29.11     0  03:50        0.11
  J14                  JUNCTION     0.12     0.15    20.15     0  05:41        0.15
  J17                  JUNCTION     0.06     0.08    20.08     0  03:22        0.08
  J7                   JUNCTION     0.10     0.23    39.23     0  02:51        0.23
  J11                  JUNCTION     0.12     0.30    31.30     0  02:51        0.30
  J18                  JUNCTION     0.07     0.16    29.16     0  02:20        0.16
  Out_to_WWTP          OUTFALL      0.14     0.17     6.17     0  04:34        0.17
  T5                   STORAGE      3.69     5.00    32.00     0  02:08        5.00
  T4                   STORAGE      3.69     5.00    32.00     0  02:31        5.00
  T6                   STORAGE      3.86     5.00    36.00     0  02:05        5.00
  T3                   STORAGE      3.68     5.00    27.00     0  02:45        5.00
  T2                   STORAGE      3.75     5.00    26.00     0  02:18        5.00
  T1                   STORAGE      3.73     5.00    15.00     0  02:00        5.00
  
  
  *******************
  Node Inflow Summary
  *******************
  
  -------------------------------------------------------------------------------------------------
                                  Maximum  Maximum                  Lateral       Total        Flow
                                  Lateral    Total  Time of Max      Inflow      Inflow     Balance
                                   Inflow   Inflow   Occurrence      Volume      Volume       Error
  Node                 Type           CMS      CMS  days hr:min    10^6 ltr    10^6 ltr     Percent
  -------------------------------------------------------------------------------------------------
  J1                   JUNCTION     0.618    0.618     0  02:07        2.96        2.96       0.003
  J3                   JUNCTION     0.000    0.191     0  03:12           0        3.82       1.006
  CSO7                 JUNCTION     0.167    0.167     0  02:10        1.02        1.02       0.047
  J5                   JUNCTION     0.232    0.305     0  02:10        1.18        1.95       0.067
  CSO9                 JUNCTION     0.250    0.250     0  02:08        1.25        1.25       0.034
  J8                   JUNCTION     1.050    1.178     0  02:11        5.89        6.91       0.063
  CSO8                 JUNCTION     1.034    1.034     0  02:08        4.59        4.59       0.008
  J10                  JUNCTION     0.747    1.233     0  02:05        3.16        6.72      -0.049
  J13                  JUNCTION     0.889    0.889     0  02:07        3.97        3.97      -0.147
  J15                  JUNCTION     0.000    1.659     0  02:07           0        11.6       0.694
  J16                  JUNCTION     1.302    1.302     0  02:06        5.63        5.63      -0.021
  CSO10                JUNCTION     0.438    0.438     0  02:07        1.94        1.94       0.017
  J12                  JUNCTION     0.000    1.300     0  02:06           0         8.3       8.138
  J4                   JUNCTION     0.000    0.075     0  01:43           0       0.772       0.430
  J6                   JUNCTION     0.000    0.028     0  02:31           0       0.575       0.706
  J2                   JUNCTION     0.000    0.039     0  02:08           0       0.885       0.575
  J19                  JUNCTION     0.000    0.271     0  02:00           0        6.04       0.197
  J9                   JUNCTION     0.000    0.075     0  02:05           0        1.58       1.165
  J14                  JUNCTION     0.000    0.124     0  03:10           0        2.38       0.308
  J17                  JUNCTION     0.000    0.033     0  02:18           0       0.677       0.612
  J7                   JUNCTION     0.000    0.127     0  02:51           0        1.02       0.304
  J11                  JUNCTION     0.000    0.487     0  02:51           0        3.57       0.184
  J18                  JUNCTION     0.000    0.202     0  02:20           0         1.5       0.043
  Out_to_WWTP          OUTFALL      0.000    0.271     0  02:01           0        6.03       0.000
  T5                   STORAGE      0.000    0.617     0  02:07           0        2.96      15.455
  T4                   STORAGE      0.000    0.305     0  02:10           0        1.95      20.556
  T6                   STORAGE      0.000    1.177     0  02:12           0        6.91      13.094
  T3                   STORAGE      0.000    1.439     0  02:54           0        7.67      21.108
  T2                   STORAGE      0.000    0.889     0  02:07           0        3.97      29.078
  T1                   STORAGE      0.000    1.634     0  02:10           0        11.5       6.479
  
  
  **********************
  Node Surcharge Summary
  **********************
  
  Surcharging occurs when water rises above the top of the highest conduit.
  ---------------------------------------------------------------------
                                               Max. Height   Min. Depth
                                   Hours       Above Crown    Below Rim
  Node                 Type      Surcharged         Meters       Meters
  ---------------------------------------------------------------------
  CSO7                 JUNCTION        1.55          0.945        0.000
  CSO9                 JUNCTION        1.56          1.682        0.000
  CSO8                 JUNCTION        1.56          1.547        0.000
  CSO10                JUNCTION        1.38          0.560        0.000
  J4                   JUNCTION        1.52          1.030        0.670
  
  
  *********************
  Node Flooding Summary
  *********************
  
  Flooding refers to all water that overflows a node, whether it ponds or not.
  --------------------------------------------------------------------------
                                                             Total   Maximum
                                 Maximum   Time of Max       Flood    Ponded
                        Hours       Rate    Occurrence      Volume     Depth
  Node                 Flooded       CMS   days hr:min    10^6 ltr    Meters
  --------------------------------------------------------------------------
  CSO7                    1.38     0.095      0  02:10       0.243     0.000
  CSO9                    1.09     0.123      0  02:08       0.230     0.000
  CSO8                    1.14     0.548      0  02:08       1.022     0.000
  CSO10                   1.16     0.235      0  02:07       0.441     0.000
  T5                      1.77     0.576      0  02:08       1.278     0.000
  T4                      2.51     0.226      0  02:31       0.585     0.000
  T6                      3.03     1.101      0  02:12       3.961     0.000
  T3                      1.59     1.379      0  02:54       1.437     0.000
  T2                      2.57     0.698      0  02:18       1.458     0.000
  T1                      2.19     1.364      0  02:10       4.178     0.000
  
  
  **********************
  Storage Volume Summary
  **********************
  
  --------------------------------------------------------------------------------------------------
                         Average     Avg  Evap Exfil       Maximum     Max    Time of Max    Maximum
                          Volume    Pcnt  Pcnt  Pcnt        Volume    Pcnt     Occurrence    Outflow
  Storage Unit           1000 m3    Full  Loss  Loss       1000 m3    Full    days hr:min        CMS
  --------------------------------------------------------------------------------------------------
  T5                       0.369      74     0     0         0.500     100       0  02:08      0.039
  T4                       0.369      74     0     0         0.500     100       0  02:31      0.028
  T6                       0.464      77     0     0         0.600     100       0  02:05      0.075
  T3                       1.916      74     0     0         2.600     100       0  02:45      0.192
  T2                       0.751      75     0     0         1.000     100       0  02:18      0.033
  T1                       0.523      75     0     0         0.700     100       0  02:00      0.271
  
  
  ***********************
  Outfall Loading Summary
  ***********************
  
  -----------------------------------------------------------
                         Flow       Avg       Max       Total
                         Freq      Flow      Flow      Volume
  Outfall Node           Pcnt       CMS       CMS    10^6 ltr
  -----------------------------------------------------------
  Out_to_WWTP           99.01     0.216     0.271       6.032
  -----------------------------------------------------------
  System                99.01     0.216     0.271       6.032
  
  
  ********************
  Link Flow Summary
  ********************
  
  -----------------------------------------------------------------------------
                                 Maximum  Time of Max   Maximum    Max/    Max/
                                  |Flow|   Occurrence   |Veloc|    Full    Full
  Link                 Type          CMS  days hr:min     m/sec    Flow   Depth
  -----------------------------------------------------------------------------
  C1                   CONDUIT     0.039     0  02:57      1.05    0.01    0.11
  C6                   CONDUIT     0.073     0  02:10      1.29    1.16    0.81
  C2                   CONDUIT     0.028     0  03:20      1.01    0.03    0.18
  C9                   CONDUIT     0.127     0  02:52      1.31    0.43    0.58
  C16                  CONDUIT     0.488     0  01:52      1.79    0.05    0.16
  C3                   CONDUIT     0.124     0  03:12      1.83    0.05    0.14
  C19                  CONDUIT     0.033     0  03:22      0.64    0.01    0.25
  C11                  CONDUIT     0.191     0  03:38      1.75    0.01    0.14
  C20                  CONDUIT     1.300     0  02:06      3.54    0.04    0.18
  C22                  CONDUIT     0.202     0  02:20      1.60    0.09    0.37
  C12                  CONDUIT     0.075     0  03:50      0.59    0.01    0.30
  C17                  CONDUIT     1.228     0  02:06      3.31    0.06    0.34
  C10                  CONDUIT     1.177     0  02:12      1.66    0.12    0.62
  C13                  CONDUIT     1.439     0  02:54      1.45    0.08    0.77
  C18                  CONDUIT     0.889     0  02:07      1.72    0.03    0.56
  C23                  CONDUIT     1.634     0  02:10      1.36    0.18    0.64
  C4                   CONDUIT     0.617     0  02:07      1.98    0.15    0.63
  C7                   CONDUIT     0.305     0  02:10      1.43    0.07    0.59
  C14                  CONDUIT     0.271     0  02:01      2.08    0.02    0.09
  C5                   CONDUIT     0.075     0  01:43      1.46    1.28    1.00
  C8                   CONDUIT     0.127     0  02:51      1.75    1.60    0.86
  C15                  CONDUIT     0.487     0  02:51      3.42    1.55    0.83
  C21                  CONDUIT     0.202     0  02:20      1.83    1.16    0.69
  V4                   ORIFICE     0.028     0  02:31                      0.35
  V5                   ORIFICE     0.039     0  02:08                      1.00
  V1                   ORIFICE     0.271     0  02:00                      1.00
  V6                   ORIFICE     0.075     0  02:05                      0.43
  V3                   ORIFICE     0.124     0  03:10                      0.65
  V2                   ORIFICE     0.033     0  02:18                      0.24
  
  
  ***************************
  Flow Classification Summary
  ***************************
  
  -------------------------------------------------------------------------------------
                      Adjusted    ---------- Fraction of Time in Flow Class ---------- 
                       /Actual         Up    Down  Sub   Sup   Up    Down  Norm  Inlet 
  Conduit               Length    Dry  Dry   Dry   Crit  Crit  Crit  Crit  Ltd   Ctrl  
  -------------------------------------------------------------------------------------
  C1                      1.00   0.00  0.00  0.00  0.19  0.81  0.00  0.00  0.94  0.00
  C6                      1.00   0.00  0.00  0.00  0.22  0.78  0.00  0.00  0.00  0.00
  C2                      1.00   0.00  0.00  0.00  0.56  0.44  0.00  0.00  0.95  0.00
  C9                      1.00   0.00  0.00  0.00  1.00  0.00  0.00  0.00  1.00  0.00
  C16                     1.00   0.00  0.00  0.00  0.55  0.45  0.00  0.00  0.51  0.00
  C3                      1.00   0.00  0.00  0.00  0.05  0.95  0.00  0.00  0.35  0.00
  C19                     1.00   0.00  0.00  0.00  1.00  0.00  0.00  0.00  1.00  0.00
  C11                     1.00   0.00  0.00  0.00  0.35  0.65  0.00  0.00  1.00  0.00
  C20                     1.00   0.00  0.00  0.00  0.56  0.44  0.00  0.00  0.98  0.00
  C22                     1.00   0.00  0.00  0.00  0.79  0.21  0.00  0.00  1.00  0.00
  C12                     1.00   0.00  0.00  0.00  1.00  0.00  0.00  0.00  1.00  0.00
  C17                     1.00   0.00  0.00  0.00  0.68  0.32  0.00  0.00  0.93  0.00
  C10                     1.00   0.00  0.00  0.00  0.96  0.04  0.00  0.00  0.97  0.00
  C13                     1.00   0.00  0.00  0.00  0.85  0.15  0.00  0.00  0.22  0.00
  C18                     1.00   0.00  0.00  0.00  0.94  0.06  0.00  0.00  0.97  0.00
  C23                     1.00   0.00  0.00  0.00  0.85  0.15  0.00  0.00  0.94  0.00
  C4                      1.00   0.00  0.00  0.00  0.96  0.04  0.00  0.00  0.98  0.00
  C7                      1.00   0.00  0.00  0.00  0.94  0.06  0.00  0.00  0.97  0.00
  C14                     1.00   0.00  0.00  0.00  0.00  0.99  0.00  0.00  0.39  0.00
  C5                      1.00   0.00  0.00  0.00  0.92  0.08  0.00  0.00  0.78  0.00
  C8                      1.00   0.00  0.00  0.00  0.23  0.77  0.00  0.00  0.00  0.00
  C15                     1.00   0.00  0.00  0.00  0.00  1.00  0.00  0.00  0.00  0.00
  C21                     1.00   0.00  0.00  0.00  0.00  1.00  0.00  0.00  0.00  0.00
  
  
  *************************
  Conduit Surcharge Summary
  *************************
  
  ----------------------------------------------------------------------------
                                                           Hours        Hours 
                         --------- Hours Full --------   Above Full   Capacity
  Conduit                Both Ends  Upstream  Dnstream   Normal Flow   Limited
  ----------------------------------------------------------------------------
  C6                          0.01      1.52      0.01      1.43         0.01
  C10                         0.01      0.01      6.15      0.01         0.01
  C13                         0.01      0.01      5.86      0.01         0.01
  C18                         0.01      0.01      5.94      0.01         0.01
  C23                         0.01      0.01      6.22      0.01         0.01
  C4                          0.01      0.01      6.30      0.01         0.01
  C7                          0.01      0.01      6.11      0.01         0.01
  C5                          1.54      1.55      1.64      1.59         1.51
  C8                          0.01      1.56      0.01      1.58         0.01
  C15                         0.01      1.56      0.01      1.61         0.01
  C21                         0.01      1.38      0.01      1.38         0.01
  

  Analysis begun on:  Fri Sep  3 19:45:17 2021
  Analysis ended on:  Fri Sep  3 19:45:17 2021
  Total elapsed time: < 1 sec