
  EPA STORM WATER MANAGEMENT MODEL - VERSION 5.1 (Build 5.3.0.dev0)
  --------------------------------------------------------------

  
  *********************************************************
  NOTE: The summary statistics displayed in this report are
  based on results found at every computational time step,  
  not just on results from each reporting time step.
  *********************************************************
  
  ****************
  Analysis Options
  ****************
  Flow Units ............... CMS
  Process Models:
    Rainfall/Runoff ........ YES
    RDII ................... NO
    Snowmelt ............... NO
    Groundwater ............ NO
    Flow Routing ........... YES
    Ponding Allowed ........ YES
    Water Quality .......... NO
  Infiltration Method ...... HORTON
  Flow Routing Method ...... DYNWAVE
  Surcharge Method ......... EXTRAN
  Starting Date ............ 08/28/2015 08:00:00
  Ending Date .............. 08/28/2015 15:50:00
  Antecedent Dry Days ...... 0.0
  Report Time Step ......... 00:01:00
  Wet Time Step ............ 00:01:00
  Dry Time Step ............ 00:01:00
  Routing Time Step ........ 5.00 sec
  Variable Time Step ....... YES
  Maximum Trials ........... 8
  Number of Threads ........ 1
  Head Tolerance ........... 0.001500 m
  
  
  **************************        Volume         Depth
  Runoff Quantity Continuity     hectare-m            mm
  **************************     ---------       -------
  Total Precipitation ......         1.064         5.903
  Evaporation Loss .........         0.000         0.000
  Infiltration Loss ........         0.000         0.000
  Surface Runoff ...........         1.041         5.778
  Final Storage ............         0.023         0.126
  Continuity Error (%) .....        -0.007
  
  
  **************************        Volume        Volume
  Flow Routing Continuity        hectare-m      10^6 ltr
  **************************     ---------     ---------
  Dry Weather Inflow .......         0.396         3.955
  Wet Weather Inflow .......         1.041        10.411
  Groundwater Inflow .......         0.000         0.000
  RDII Inflow ..............         0.000         0.000
  External Inflow ..........         0.000         0.000
  External Outflow .........         0.542         5.422
  Flooding Loss ............         0.086         0.862
  Evaporation Loss .........         0.000         0.000
  Exfiltration Loss ........         0.000         0.000
  Initial Stored Volume ....         0.000         0.000
  Final Stored Volume ......         0.623         6.233
  Continuity Error (%) .....        12.873
  
  
  *************************
  Highest Continuity Errors
  *************************
  Node T2 (38.68%)
  Node T4 (23.95%)
  Node T5 (23.78%)
  Node T6 (21.04%)
  Node T3 (20.99%)
  
  
  ***************************
  Time-Step Critical Elements
  ***************************
  None
  
  
  ********************************
  Highest Flow Instability Indexes
  ********************************
  All links are stable.
  
  
  *************************
  Routing Time Step Summary
  *************************
  Minimum Time Step           :     4.50 sec
  Average Time Step           :     5.00 sec
  Maximum Time Step           :     5.00 sec
  Percent in Steady State     :     0.00
  Average Iterations per Step :     2.02
  Percent Not Converging      :     0.11
  
  
  ***************************
  Subcatchment Runoff Summary
  ***************************
  
  ------------------------------------------------------------------------------------------------------------------------------
                            Total      Total      Total      Total     Imperv       Perv      Total       Total     Peak  Runoff
                           Precip      Runon       Evap      Infil     Runoff     Runoff     Runoff      Runoff   Runoff   Coeff
  Subcatchment                 mm         mm         mm         mm         mm         mm         mm    10^6 ltr      CMS
  ------------------------------------------------------------------------------------------------------------------------------
  SC01                       5.90       0.00       0.00       0.00       5.82       0.00       5.82        1.92     0.45   0.986
  SC02                       5.90       0.00       0.00       0.00       5.81       0.00       5.81        1.32     0.30   0.985
  SC03                       5.90       0.00       0.00       0.00       5.84       0.00       5.84        1.05     0.26   0.988
  SC04                       5.90       0.00       0.00       0.00       5.72       0.00       5.72        0.39     0.08   0.969
  SC05                       5.90       0.00       0.00       0.00       5.81       0.00       5.81        0.91     0.21   0.985
  SC06                       5.90       0.00       0.00       0.00       5.67       0.00       5.67        1.85     0.33   0.960
  SC07                       5.90       0.00       0.00       0.00       5.72       0.00       5.72        0.27     0.05   0.969
  SC08                       5.90       0.00       0.00       0.00       5.79       0.00       5.79        1.62     0.35   0.981
  SC09                       5.90       0.00       0.00       0.00       5.77       0.00       5.77        0.40     0.08   0.977
  SC010                      5.90       0.00       0.00       0.00       5.79       0.00       5.79        0.68     0.15   0.981
  
  
  ******************
  Node Depth Summary
  ******************
  
  ---------------------------------------------------------------------------------
                                 Average  Maximum  Maximum  Time of Max    Reported
                                   Depth    Depth      HGL   Occurrence   Max Depth
  Node                 Type       Meters   Meters   Meters  days hr:min      Meters
  ---------------------------------------------------------------------------------
  J1                   JUNCTION     0.07     0.16    34.16     0  02:20        0.16
  J3                   JUNCTION     0.10     0.13    18.13     0  05:04        0.13
  CSO7                 JUNCTION     0.10     0.48    34.48     0  02:30        0.37
  J5                   JUNCTION     0.06     0.13    32.13     0  02:28        0.13
  CSO9                 JUNCTION     0.12     0.67    40.67     0  02:16        0.63
  J8                   JUNCTION     0.11     0.22    36.22     0  02:28        0.22
  CSO8                 JUNCTION     0.14     0.97    32.97     0  02:16        0.83
  J10                  JUNCTION     0.09     0.24    29.24     0  02:22        0.24
  J13                  JUNCTION     0.06     0.15    29.15     0  02:20        0.15
  J15                  JUNCTION     0.16     0.29    15.29     0  02:25        0.29
  J16                  JUNCTION     0.06     0.17    30.17     0  02:20        0.17
  CSO10                JUNCTION     0.11     0.35    30.35     0  02:21        0.35
  J12                  JUNCTION     0.13     0.27    26.27     0  02:26        0.27
  J4                   JUNCTION     0.12     0.28    33.28     0  02:34        0.28
  J6                   JUNCTION     0.05     0.07    25.07     0  05:04        0.07
  J2                   JUNCTION     0.06     0.08    25.08     0  03:53        0.08
  J19                  JUNCTION     0.14     0.17     8.17     0  02:51        0.17
  J9                   JUNCTION     0.09     0.11    29.11     0  04:13        0.11
  J14                  JUNCTION     0.11     0.14    20.14     0  07:29        0.14
  J17                  JUNCTION     0.05     0.07    20.07     0  07:31        0.07
  J7                   JUNCTION     0.08     0.19    39.19     0  02:26        0.19
  J11                  JUNCTION     0.09     0.26    31.26     0  02:23        0.26
  J18                  JUNCTION     0.05     0.14    29.14     0  02:23        0.14
  Out_to_WWTP          OUTFALL      0.14     0.17     6.17     0  03:49        0.17
  T5                   STORAGE      2.88     4.30    31.30     0  03:51        4.30
  T4                   STORAGE      2.49     3.77    30.77     0  05:03        3.77
  T6                   STORAGE      3.43     5.00    36.00     0  02:57        5.00
  T3                   STORAGE      2.47     3.69    25.69     0  05:57        3.69
  T2                   STORAGE      2.44     3.65    24.65     0  07:10        3.65
  T1                   STORAGE      3.14     5.00    15.00     0  02:49        5.00
  
  
  *******************
  Node Inflow Summary
  *******************
  
  -------------------------------------------------------------------------------------------------
                                  Maximum  Maximum                  Lateral       Total        Flow
                                  Lateral    Total  Time of Max      Inflow      Inflow     Balance
                                   Inflow   Inflow   Occurrence      Volume      Volume       Error
  Node                 Type           CMS      CMS  days hr:min    10^6 ltr    10^6 ltr     Percent
  -------------------------------------------------------------------------------------------------
  J1                   JUNCTION     0.229    0.229     0  02:20        1.47        1.47       0.038
  J3                   JUNCTION     0.000    0.166     0  05:02           0        3.23       1.028
  CSO7                 JUNCTION     0.062    0.062     0  02:26       0.562       0.562       0.076
  J5                   JUNCTION     0.080    0.139     0  02:27       0.522        1.08       0.145
  CSO9                 JUNCTION     0.089    0.089     0  02:23       0.594       0.594       0.052
  J8                   JUNCTION     0.364    0.452     0  02:27        2.79        3.38       0.155
  CSO8                 JUNCTION     0.362    0.362     0  02:22        1.91        1.91       0.014
  J10                  JUNCTION     0.275    0.625     0  02:21        1.44        3.34       0.154
  J13                  JUNCTION     0.322    0.322     0  02:20        1.79        1.79      -0.216
  J15                  JUNCTION     0.000    0.727     0  02:21           0        6.87       1.110
  J16                  JUNCTION     0.469    0.469     0  02:20        2.47        2.47       0.008
  CSO10                JUNCTION     0.154    0.154     0  02:21        0.82        0.82       0.051
  J12                  JUNCTION     0.000    0.671     0  02:23           0        4.94       0.487
  J4                   JUNCTION     0.000    0.062     0  02:24           0       0.562       0.660
  J6                   JUNCTION     0.000    0.024     0  05:03           0       0.471       0.483
  J2                   JUNCTION     0.000    0.036     0  03:51           0       0.773       0.625
  J19                  JUNCTION     0.000    0.271     0  02:49           0        5.43       0.203
  J9                   JUNCTION     0.000    0.075     0  02:57           0        1.62       1.073
  J14                  JUNCTION     0.000    0.106     0  05:57           0           2       0.334
  J17                  JUNCTION     0.000    0.028     0  07:20           0       0.386       1.498
  J7                   JUNCTION     0.000    0.089     0  02:23           0       0.594       0.533
  J11                  JUNCTION     0.000    0.362     0  02:22           0        1.91       0.315
  J18                  JUNCTION     0.000    0.154     0  02:22           0       0.819       0.116
  Out_to_WWTP          OUTFALL      0.000    0.271     0  02:51           0        5.42       0.000
  T5                   STORAGE      0.000    0.229     0  02:20           0        1.47      31.192
  T4                   STORAGE      0.000    0.139     0  02:28           0        1.08      31.487
  T6                   STORAGE      0.000    0.452     0  02:28           0        3.37      26.647
  T3                   STORAGE      0.000    0.664     0  02:26           0        4.91      26.564
  T2                   STORAGE      0.000    0.321     0  02:20           0        1.79      63.083
  T1                   STORAGE      0.000    0.717     0  02:25           0         6.8       9.219
  
  
  **********************
  Node Surcharge Summary
  **********************
  
  Surcharging occurs when water rises above the top of the highest conduit.
  ---------------------------------------------------------------------
                                               Max. Height   Min. Depth
                                   Hours       Above Crown    Below Rim
  Node                 Type      Surcharged         Meters       Meters
  ---------------------------------------------------------------------
  CSO7                 JUNCTION        0.16          0.224        0.721
  CSO9                 JUNCTION        0.39          0.348        1.334
  CSO8                 JUNCTION        0.34          0.514        1.033
  
  
  *********************
  Node Flooding Summary
  *********************
  
  Flooding refers to all water that overflows a node, whether it ponds or not.
  --------------------------------------------------------------------------
                                                             Total   Maximum
                                 Maximum   Time of Max       Flood    Ponded
                        Hours       Rate    Occurrence      Volume     Depth
  Node                 Flooded       CMS   days hr:min    10^6 ltr    Meters
  --------------------------------------------------------------------------
  T6                      2.05     0.290      0  02:57       0.546     0.000
  T1                      0.67     0.276      0  02:49       0.316     0.000
  
  
  **********************
  Storage Volume Summary
  **********************
  
  --------------------------------------------------------------------------------------------------
                         Average     Avg  Evap Exfil       Maximum     Max    Time of Max    Maximum
                          Volume    Pcnt  Pcnt  Pcnt        Volume    Pcnt     Occurrence    Outflow
  Storage Unit           1000 m3    Full  Loss  Loss       1000 m3    Full    days hr:min        CMS
  --------------------------------------------------------------------------------------------------
  T5                       0.288      58     0     0         0.430      86       0  03:51      0.036
  T4                       0.249      50     0     0         0.377      75       0  05:03      0.024
  T6                       0.412      69     0     0         0.600     100       0  02:57      0.075
  T3                       1.287      49     0     0         1.917      74       0  05:57      0.106
  T2                       0.487      49     0     0         0.730      73       0  07:10      0.028
  T1                       0.440      63     0     0         0.700     100       0  02:49      0.271
  
  
  ***********************
  Outfall Loading Summary
  ***********************
  
  -----------------------------------------------------------
                         Flow       Avg       Max       Total
                         Freq      Flow      Flow      Volume
  Outfall Node           Pcnt       CMS       CMS    10^6 ltr
  -----------------------------------------------------------
  Out_to_WWTP           99.01     0.194     0.271       5.422
  -----------------------------------------------------------
  System                99.01     0.194     0.271       5.422
  
  
  ********************
  Link Flow Summary
  ********************
  
  -----------------------------------------------------------------------------
                                 Maximum  Time of Max   Maximum    Max/    Max/
                                  |Flow|   Occurrence   |Veloc|    Full    Full
  Link                 Type          CMS  days hr:min     m/sec    Flow   Depth
  -----------------------------------------------------------------------------
  C1                   CONDUIT     0.036     0  03:53      1.03    0.01    0.10
  C6                   CONDUIT     0.060     0  02:34      1.27    0.96    0.67
  C2                   CONDUIT     0.024     0  05:04      0.93    0.03    0.16
  C9                   CONDUIT     0.088     0  02:26      1.17    0.30    0.41
  C16                  CONDUIT     0.360     0  02:23      1.60    0.03    0.12
  C3                   CONDUIT     0.106     0  05:58      1.72    0.04    0.13
  C19                  CONDUIT     0.028     0  07:31      0.58    0.01    0.17
  C11                  CONDUIT     0.166     0  05:04      1.67    0.01    0.10
  C20                  CONDUIT     0.469     0  02:20      2.46    0.01    0.11
  C22                  CONDUIT     0.153     0  02:23      1.43    0.07    0.27
  C12                  CONDUIT     0.075     0  04:13      1.09    0.01    0.09
  C17                  CONDUIT     0.623     0  02:22      2.70    0.03    0.13
  C10                  CONDUIT     0.452     0  02:28      1.66    0.05    0.57
  C13                  CONDUIT     0.664     0  02:26      1.45    0.04    0.56
  C18                  CONDUIT     0.321     0  02:20      1.72    0.01    0.54
  C23                  CONDUIT     0.717     0  02:25      1.24    0.08    0.60
  C4                   CONDUIT     0.229     0  02:20      1.98    0.06    0.58
  C7                   CONDUIT     0.139     0  02:28      1.43    0.03    0.56
  C14                  CONDUIT     0.271     0  02:51      2.08    0.02    0.09
  C5                   CONDUIT     0.062     0  02:24      1.24    1.06    1.00
  C8                   CONDUIT     0.089     0  02:23      1.32    1.12    0.80
  C15                  CONDUIT     0.362     0  02:22      2.68    1.15    0.78
  C21                  CONDUIT     0.154     0  02:22      1.75    0.88    0.56
  V4                   ORIFICE     0.024     0  05:03                      0.35
  V5                   ORIFICE     0.036     0  03:51                      1.00
  V1                   ORIFICE     0.271     0  02:49                      1.00
  V6                   ORIFICE     0.075     0  02:57                      0.43
  V3                   ORIFICE     0.106     0  05:57                      0.65
  V2                   ORIFICE     0.028     0  07:20                      0.24
  
  
  ***************************
  Flow Classification Summary
  ***************************
  
  -------------------------------------------------------------------------------------
                      Adjusted    ---------- Fraction of Time in Flow Class ---------- 
                       /Actual         Up    Down  Sub   Sup   Up    Down  Norm  Inlet 
  Conduit               Length    Dry  Dry   Dry   Crit  Crit  Crit  Crit  Ltd   Ctrl  
  -------------------------------------------------------------------------------------
  C1                      1.00   0.00  0.00  0.00  0.00  1.00  0.00  0.00  0.94  0.00
  C6                      1.00   0.00  0.00  0.00  0.06  0.94  0.00  0.00  0.00  0.00
  C2                      1.00   0.00  0.00  0.00  0.65  0.35  0.00  0.00  0.95  0.00
  C9                      1.00   0.00  0.00  0.00  1.00  0.00  0.00  0.00  1.00  0.00
  C16                     1.00   0.00  0.00  0.00  0.60  0.40  0.00  0.00  0.49  0.00
  C3                      1.00   0.00  0.00  0.00  0.05  0.95  0.00  0.00  0.33  0.00
  C19                     1.00   0.00  0.00  0.00  1.00  0.00  0.00  0.00  1.00  0.00
  C11                     1.00   0.00  0.00  0.00  0.34  0.66  0.00  0.00  1.00  0.00
  C20                     1.00   0.00  0.00  0.00  0.55  0.45  0.00  0.00  0.98  0.00
  C22                     1.00   0.00  0.00  0.00  0.78  0.22  0.00  0.00  1.00  0.00
  C12                     1.00   0.00  0.00  0.00  0.47  0.53  0.00  0.00  0.95  0.00
  C17                     1.00   0.00  0.00  0.00  0.40  0.60  0.00  0.00  0.97  0.00
  C10                     1.00   0.00  0.00  0.00  0.96  0.04  0.00  0.00  0.97  0.00
  C13                     1.00   0.00  0.00  0.00  0.88  0.12  0.00  0.00  0.91  0.00
  C18                     1.00   0.00  0.00  0.00  0.94  0.06  0.00  0.00  0.97  0.00
  C23                     1.00   0.00  0.00  0.00  0.87  0.13  0.00  0.00  0.94  0.00
  C4                      1.00   0.00  0.00  0.00  0.96  0.04  0.00  0.00  0.98  0.00
  C7                      1.00   0.00  0.00  0.00  0.94  0.06  0.00  0.00  0.97  0.00
  C14                     1.00   0.00  0.00  0.00  0.00  0.99  0.00  0.00  0.22  0.00
  C5                      1.00   0.00  0.00  0.00  0.88  0.12  0.00  0.00  0.95  0.00
  C8                      1.00   0.00  0.00  0.00  0.09  0.91  0.00  0.00  0.00  0.00
  C15                     1.00   0.00  0.00  0.00  0.00  1.00  0.00  0.00  0.00  0.00
  C21                     1.00   0.00  0.00  0.00  0.00  1.00  0.00  0.00  0.00  0.00
  
  
  *************************
  Conduit Surcharge Summary
  *************************
  
  ----------------------------------------------------------------------------
                                                           Hours        Hours 
                         --------- Hours Full --------   Above Full   Capacity
  Conduit                Both Ends  Upstream  Dnstream   Normal Flow   Limited
  ----------------------------------------------------------------------------
  C10                         0.01      0.01      5.65      0.01         0.01
  C13                         0.01      0.01      5.19      0.01         0.01
  C18                         0.01      0.01      5.27      0.01         0.01
  C23                         0.01      0.01      5.70      0.01         0.01
  C4                          0.01      0.01      5.85      0.01         0.01
  C7                          0.01      0.01      5.60      0.01         0.01
  C5                          0.16      0.16      0.37      0.37         0.13
  C8                          0.01      0.39      0.01      0.37         0.01
  C15                         0.01      0.34      0.01      0.40         0.01
  

  Analysis begun on:  Fri Sep  3 19:33:08 2021
  Analysis ended on:  Fri Sep  3 19:33:08 2021
  Total elapsed time: < 1 sec