
  EPA STORM WATER MANAGEMENT MODEL - VERSION 5.1 (Build 5.3.0.dev0)
  --------------------------------------------------------------

  
  *********************************************************
  NOTE: The summary statistics displayed in this report are
  based on results found at every computational time step,  
  not just on results from each reporting time step.
  *********************************************************
  
  ****************
  Analysis Options
  ****************
  Flow Units ............... CMS
  Process Models:
    Rainfall/Runoff ........ YES
    RDII ................... NO
    Snowmelt ............... NO
    Groundwater ............ NO
    Flow Routing ........... YES
    Ponding Allowed ........ YES
    Water Quality .......... NO
  Infiltration Method ...... HORTON
  Flow Routing Method ...... DYNWAVE
  Surcharge Method ......... EXTRAN
  Starting Date ............ 08/28/2015 08:00:00
  Ending Date .............. 08/28/2015 15:50:00
  Antecedent Dry Days ...... 0.0
  Report Time Step ......... 00:01:00
  Wet Time Step ............ 00:01:00
  Dry Time Step ............ 00:01:00
  Routing Time Step ........ 5.00 sec
  Variable Time Step ....... YES
  Maximum Trials ........... 8
  Number of Threads ........ 1
  Head Tolerance ........... 0.001500 m
  
  
  **************************        Volume         Depth
  Runoff Quantity Continuity     hectare-m            mm
  **************************     ---------       -------
  Total Precipitation ......         1.168         6.482
  Evaporation Loss .........         0.000         0.000
  Infiltration Loss ........         0.000         0.000
  Surface Runoff ...........         1.145         6.355
  Final Storage ............         0.023         0.128
  Continuity Error (%) .....        -0.021
  
  
  **************************        Volume        Volume
  Flow Routing Continuity        hectare-m      10^6 ltr
  **************************     ---------     ---------
  Dry Weather Inflow .......         0.396         3.955
  Wet Weather Inflow .......         1.145        11.452
  Groundwater Inflow .......         0.000         0.000
  RDII Inflow ..............         0.000         0.000
  External Inflow ..........         0.000         0.000
  External Outflow .........         0.615         6.154
  Flooding Loss ............         0.287         2.871
  Evaporation Loss .........         0.000         0.000
  Exfiltration Loss ........         0.000         0.000
  Initial Stored Volume ....         0.000         0.000
  Final Stored Volume ......         0.510         5.096
  Continuity Error (%) .....         8.346
  
  
  *************************
  Highest Continuity Errors
  *************************
  Node T5 (23.93%)
  Node T3 (16.41%)
  Node T1 (7.87%)
  Node T6 (6.87%)
  Node T4 (4.56%)
  
  
  ***************************
  Time-Step Critical Elements
  ***************************
  None
  
  
  ********************************
  Highest Flow Instability Indexes
  ********************************
  All links are stable.
  
  
  *************************
  Routing Time Step Summary
  *************************
  Minimum Time Step           :     4.50 sec
  Average Time Step           :     5.00 sec
  Maximum Time Step           :     5.00 sec
  Percent in Steady State     :     0.00
  Average Iterations per Step :     2.00
  Percent Not Converging      :     0.00
  
  
  ***************************
  Subcatchment Runoff Summary
  ***************************
  
  ------------------------------------------------------------------------------------------------------------------------------
                            Total      Total      Total      Total     Imperv       Perv      Total       Total     Peak  Runoff
                           Precip      Runon       Evap      Infil     Runoff     Runoff     Runoff      Runoff   Runoff   Coeff
  Subcatchment                 mm         mm         mm         mm         mm         mm         mm    10^6 ltr      CMS
  ------------------------------------------------------------------------------------------------------------------------------
  SC01                       6.48       0.00       0.00       0.00       6.40       0.00       6.40        2.11     0.35   0.987
  SC02                       6.48       0.00       0.00       0.00       6.39       0.00       6.39        1.45     0.24   0.986
  SC03                       6.48       0.00       0.00       0.00       6.42       0.00       6.42        1.15     0.20   0.990
  SC04                       6.48       0.00       0.00       0.00       6.29       0.00       6.29        0.43     0.07   0.971
  SC05                       6.48       0.00       0.00       0.00       6.39       0.00       6.39        1.00     0.16   0.986
  SC06                       6.48       0.00       0.00       0.00       6.24       0.00       6.24        2.03     0.31   0.963
  SC07                       6.48       0.00       0.00       0.00       6.29       0.00       6.29        0.30     0.05   0.971
  SC08                       6.48       0.00       0.00       0.00       6.37       0.00       6.37        1.78     0.29   0.982
  SC09                       6.48       0.00       0.00       0.00       6.34       0.00       6.34        0.44     0.07   0.979
  SC010                      6.48       0.00       0.00       0.00       6.37       0.00       6.37        0.75     0.12   0.983
  
  
  ******************
  Node Depth Summary
  ******************
  
  ---------------------------------------------------------------------------------
                                 Average  Maximum  Maximum  Time of Max    Reported
                                   Depth    Depth      HGL   Occurrence   Max Depth
  Node                 Type       Meters   Meters   Meters  days hr:min      Meters
  ---------------------------------------------------------------------------------
  J1                   JUNCTION     0.07     0.14    34.14     0  03:01        0.14
  J3                   JUNCTION     0.13     0.16    18.16     0  04:21        0.16
  CSO7                 JUNCTION     0.10     0.21    34.21     0  03:01        0.21
  J5                   JUNCTION     0.07     0.12    32.12     0  03:01        0.12
  CSO9                 JUNCTION     0.11     0.27    40.27     0  03:01        0.27
  J8                   JUNCTION     0.11     0.21    36.21     0  03:01        0.21
  CSO8                 JUNCTION     0.14     0.37    32.37     0  03:01        0.37
  J10                  JUNCTION     0.10     0.22    29.22     0  03:01        0.22
  J13                  JUNCTION     0.06     0.14    29.14     0  03:01        0.14
  J15                  JUNCTION     0.20     0.30    15.30     0  03:02        0.30
  J16                  JUNCTION     0.07     0.15    30.15     0  03:01        0.15
  CSO10                JUNCTION     0.12     0.30    30.30     0  03:01        0.30
  J12                  JUNCTION     0.16     0.27    26.27     0  03:03        0.27
  J4                   JUNCTION     0.12     0.24    33.24     0  03:02        0.24
  J6                   JUNCTION     0.08     0.10    25.10     0  03:35        0.10
  J2                   JUNCTION     0.07     0.08    25.08     0  03:55        0.08
  J19                  JUNCTION     0.15     0.17     8.17     0  02:32        0.17
  J9                   JUNCTION     0.13     0.16    29.16     0  03:38        0.16
  J14                  JUNCTION     0.14     0.18    20.18     0  06:20        0.18
  J17                  JUNCTION     0.10     0.12    20.12     0  03:22        0.12
  J7                   JUNCTION     0.08     0.17    39.17     0  03:02        0.17
  J11                  JUNCTION     0.10     0.23    31.23     0  03:01        0.23
  J18                  JUNCTION     0.06     0.13    29.13     0  03:01        0.13
  Out_to_WWTP          OUTFALL      0.15     0.17     6.17     0  02:31        0.17
  T5                   STORAGE      3.14     4.61    31.61     0  03:53        4.61
  T4                   STORAGE      1.25     2.45    29.45     0  03:34        2.45
  T6                   STORAGE      2.51     4.89    35.89     0  03:36        4.89
  T3                   STORAGE      2.79     4.17    26.17     0  05:43        4.17
  T2                   STORAGE      1.15     2.30    23.30     0  03:20        2.30
  T1                   STORAGE      3.84     5.00    15.00     0  02:30        5.00
  
  
  *******************
  Node Inflow Summary
  *******************
  
  -------------------------------------------------------------------------------------------------
                                  Maximum  Maximum                  Lateral       Total        Flow
                                  Lateral    Total  Time of Max      Inflow      Inflow     Balance
                                   Inflow   Inflow   Occurrence      Volume      Volume       Error
  Node                 Type           CMS      CMS  days hr:min    10^6 ltr    10^6 ltr     Percent
  -------------------------------------------------------------------------------------------------
  J1                   JUNCTION     0.187    0.187     0  03:01        1.56        1.56      -0.001
  J3                   JUNCTION     0.000    0.261     0  04:19           0        5.44       0.813
  CSO7                 JUNCTION     0.058    0.058     0  03:01       0.589       0.589       0.079
  J5                   JUNCTION     0.072    0.127     0  03:01       0.562        1.15       0.094
  CSO9                 JUNCTION     0.077    0.077     0  03:01       0.634       0.634       0.066
  J8                   JUNCTION     0.345    0.419     0  03:01        2.97         3.6       0.096
  CSO8                 JUNCTION     0.298    0.298     0  03:01        2.08        2.08       0.022
  J10                  JUNCTION     0.215    0.502     0  03:01        1.54        3.61       0.125
  J13                  JUNCTION     0.259    0.259     0  03:01        1.92        1.92      -0.262
  J15                  JUNCTION     0.000    0.810     0  03:01           0        10.7       0.958
  J16                  JUNCTION     0.373    0.373     0  03:01        2.67        2.67      -0.029
  CSO10                JUNCTION     0.127    0.127     0  03:01       0.888       0.888       0.042
  J12                  JUNCTION     0.000    0.652     0  03:01           0        6.78       0.430
  J4                   JUNCTION     0.000    0.058     0  03:01           0       0.589       0.639
  J6                   JUNCTION     0.000    0.056     0  03:34           0        1.03       0.385
  J2                   JUNCTION     0.000    0.038     0  03:53           0       0.816       0.630
  J19                  JUNCTION     0.000    0.271     0  02:31           0        6.17       0.206
  J9                   JUNCTION     0.000    0.173     0  03:36           0         3.2       0.651
  J14                  JUNCTION     0.000    0.173     0  05:43           0        3.61       0.259
  J17                  JUNCTION     0.000    0.095     0  03:20           0        1.73       0.446
  J7                   JUNCTION     0.000    0.077     0  03:01           0       0.633       0.515
  J11                  JUNCTION     0.000    0.297     0  03:01           0        2.07       0.308
  J18                  JUNCTION     0.000    0.126     0  03:01           0       0.887       0.069
  Out_to_WWTP          OUTFALL      0.000    0.271     0  02:32           0        6.15       0.000
  T5                   STORAGE      0.000    0.186     0  03:01           0        1.56      31.457
  T4                   STORAGE      0.000    0.126     0  03:01           0        1.15       4.783
  T6                   STORAGE      0.000    0.414     0  03:01           0         3.6       7.373
  T3                   STORAGE      0.000    0.642     0  03:03           0        6.75      19.629
  T2                   STORAGE      0.000    0.257     0  03:01           0        1.93       4.657
  T1                   STORAGE      0.000    0.793     0  03:02           0        10.6       8.548
  
  
  **********************
  Node Surcharge Summary
  **********************
  
  No nodes were surcharged.
  
  
  *********************
  Node Flooding Summary
  *********************
  
  Flooding refers to all water that overflows a node, whether it ponds or not.
  --------------------------------------------------------------------------
                                                             Total   Maximum
                                 Maximum   Time of Max       Flood    Ponded
                        Hours       Rate    Occurrence      Volume     Depth
  Node                 Flooded       CMS   days hr:min    10^6 ltr    Meters
  --------------------------------------------------------------------------
  T1                      5.32     0.523      0  03:02       2.872     0.000
  
  
  **********************
  Storage Volume Summary
  **********************
  
  --------------------------------------------------------------------------------------------------
                         Average     Avg  Evap Exfil       Maximum     Max    Time of Max    Maximum
                          Volume    Pcnt  Pcnt  Pcnt        Volume    Pcnt     Occurrence    Outflow
  Storage Unit           1000 m3    Full  Loss  Loss       1000 m3    Full    days hr:min        CMS
  --------------------------------------------------------------------------------------------------
  T5                       0.314      63     0     0         0.461      92       0  03:53      0.038
  T4                       0.125      25     0     0         0.245      49       0  03:34      0.056
  T6                       0.302      50     0     0         0.587      98       0  03:36      0.173
  T3                       1.450      56     0     0         2.167      83       0  05:43      0.173
  T2                       0.231      23     0     0         0.460      46       0  03:20      0.095
  T1                       0.537      77     0     0         0.700     100       0  02:30      0.271
  
  
  ***********************
  Outfall Loading Summary
  ***********************
  
  -----------------------------------------------------------
                         Flow       Avg       Max       Total
                         Freq      Flow      Flow      Volume
  Outfall Node           Pcnt       CMS       CMS    10^6 ltr
  -----------------------------------------------------------
  Out_to_WWTP           99.01     0.220     0.271       6.154
  -----------------------------------------------------------
  System                99.01     0.220     0.271       6.154
  
  
  ********************
  Link Flow Summary
  ********************
  
  -----------------------------------------------------------------------------
                                 Maximum  Time of Max   Maximum    Max/    Max/
                                  |Flow|   Occurrence   |Veloc|    Full    Full
  Link                 Type          CMS  days hr:min     m/sec    Flow   Depth
  -----------------------------------------------------------------------------
  C1                   CONDUIT     0.038     0  03:56      0.91    0.01    0.12
  C6                   CONDUIT     0.056     0  03:03      1.26    0.89    0.60
  C2                   CONDUIT     0.056     0  03:35      1.24    0.06    0.22
  C9                   CONDUIT     0.075     0  03:02      1.09    0.26    0.38
  C16                  CONDUIT     0.293     0  03:02      1.51    0.03    0.11
  C3                   CONDUIT     0.173     0  05:43      2.01    0.07    0.17
  C19                  CONDUIT     0.095     0  03:22      1.02    0.03    0.21
  C11                  CONDUIT     0.261     0  04:21      1.82    0.01    0.11
  C20                  CONDUIT     0.370     0  03:01      2.92    0.01    0.11
  C22                  CONDUIT     0.125     0  03:01      1.15    0.06    0.27
  C12                  CONDUIT     0.173     0  03:38      1.41    0.01    0.11
  C17                  CONDUIT     0.495     0  03:01      2.40    0.02    0.12
  C10                  CONDUIT     0.414     0  03:01      1.66    0.04    0.57
  C13                  CONDUIT     0.642     0  03:03      1.76    0.04    0.57
  C18                  CONDUIT     0.257     0  03:01      2.32    0.01    0.53
  C23                  CONDUIT     0.793     0  03:02      1.30    0.09    0.60
  C4                   CONDUIT     0.186     0  03:01      1.98    0.05    0.57
  C7                   CONDUIT     0.126     0  03:01      1.43    0.03    0.56
  C14                  CONDUIT     0.271     0  02:32      2.08    0.02    0.09
  C5                   CONDUIT     0.058     0  03:01      1.22    0.99    0.87
  C8                   CONDUIT     0.077     0  03:01      1.29    0.96    0.70
  C15                  CONDUIT     0.297     0  03:01      2.66    0.95    0.66
  C21                  CONDUIT     0.126     0  03:01      1.70    0.72    0.49
  V4                   ORIFICE     0.056     0  03:34                      1.00
  V5                   ORIFICE     0.038     0  03:53                      1.00
  V1                   ORIFICE     0.271     0  02:31                      1.00
  V6                   ORIFICE     0.173     0  03:36                      1.00
  V3                   ORIFICE     0.173     0  05:43                      1.00
  V2                   ORIFICE     0.095     0  03:20                      1.00
  
  
  ***************************
  Flow Classification Summary
  ***************************
  
  -------------------------------------------------------------------------------------
                      Adjusted    ---------- Fraction of Time in Flow Class ---------- 
                       /Actual         Up    Down  Sub   Sup   Up    Down  Norm  Inlet 
  Conduit               Length    Dry  Dry   Dry   Crit  Crit  Crit  Crit  Ltd   Ctrl  
  -------------------------------------------------------------------------------------
  C1                      1.00   0.00  0.00  0.00  0.92  0.08  0.00  0.00  0.95  0.00
  C6                      1.00   0.00  0.00  0.00  0.01  0.99  0.00  0.00  0.00  0.00
  C2                      1.00   0.00  0.00  0.00  0.12  0.87  0.00  0.00  0.94  0.00
  C9                      1.00   0.00  0.00  0.00  1.00  0.00  0.00  0.00  1.00  0.00
  C16                     1.00   0.00  0.00  0.00  0.55  0.45  0.00  0.00  0.44  0.00
  C3                      1.00   0.00  0.00  0.00  0.05  0.94  0.00  0.00  0.07  0.00
  C19                     1.00   0.00  0.00  0.00  1.00  0.00  0.00  0.00  1.00  0.00
  C11                     1.00   0.00  0.00  0.00  0.32  0.68  0.00  0.00  1.00  0.00
  C20                     1.00   0.00  0.00  0.00  0.63  0.37  0.00  0.00  0.98  0.00
  C22                     1.00   0.00  0.00  0.00  0.95  0.05  0.00  0.00  1.00  0.00
  C12                     1.00   0.00  0.00  0.00  0.37  0.63  0.00  0.00  0.74  0.00
  C17                     1.00   0.00  0.00  0.00  0.51  0.49  0.00  0.00  0.95  0.00
  C10                     1.00   0.00  0.00  0.00  0.94  0.06  0.00  0.00  0.97  0.00
  C13                     1.00   0.00  0.00  0.00  0.84  0.16  0.00  0.00  0.72  0.00
  C18                     1.00   0.00  0.00  0.00  0.85  0.15  0.00  0.00  0.96  0.00
  C23                     1.00   0.00  0.00  0.00  0.89  0.11  0.00  0.00  0.94  0.00
  C4                      1.00   0.00  0.00  0.00  0.96  0.04  0.00  0.00  0.98  0.00
  C7                      1.00   0.00  0.00  0.00  0.90  0.10  0.00  0.00  0.96  0.00
  C14                     1.00   0.00  0.00  0.00  0.00  0.99  0.00  0.00  0.00  0.00
  C5                      1.00   0.00  0.00  0.00  0.94  0.06  0.00  0.00  0.97  0.00
  C8                      1.00   0.00  0.00  0.00  0.05  0.95  0.00  0.00  0.00  0.00
  C15                     1.00   0.00  0.00  0.00  0.00  1.00  0.00  0.00  0.00  0.00
  C21                     1.00   0.00  0.00  0.00  0.00  1.00  0.00  0.00  0.00  0.00
  
  
  *************************
  Conduit Surcharge Summary
  *************************
  
  ----------------------------------------------------------------------------
                                                           Hours        Hours 
                         --------- Hours Full --------   Above Full   Capacity
  Conduit                Both Ends  Upstream  Dnstream   Normal Flow   Limited
  ----------------------------------------------------------------------------
  C10                         0.01      0.01      5.54      0.01         0.01
  C13                         0.01      0.01      5.28      0.01         0.01
  C18                         0.01      0.01      1.19      0.01         0.01
  C23                         0.01      0.01      6.26      0.01         0.01
  C4                          0.01      0.01      6.28      0.01         0.01
  C7                          0.01      0.01      4.66      0.01         0.01
  

  Analysis begun on:  Fri Sep  3 16:02:44 2021
  Analysis ended on:  Fri Sep  3 16:02:44 2021
  Total elapsed time: < 1 sec