
  EPA STORM WATER MANAGEMENT MODEL - VERSION 5.1 (Build 5.3.0.dev0)
  --------------------------------------------------------------

  
  *********************************************************
  NOTE: The summary statistics displayed in this report are
  based on results found at every computational time step,  
  not just on results from each reporting time step.
  *********************************************************
  
  ****************
  Analysis Options
  ****************
  Flow Units ............... CMS
  Process Models:
    Rainfall/Runoff ........ YES
    RDII ................... NO
    Snowmelt ............... NO
    Groundwater ............ NO
    Flow Routing ........... YES
    Ponding Allowed ........ YES
    Water Quality .......... NO
  Infiltration Method ...... HORTON
  Flow Routing Method ...... DYNWAVE
  Surcharge Method ......... EXTRAN
  Starting Date ............ 08/28/2015 08:00:00
  Ending Date .............. 08/28/2015 15:50:00
  Antecedent Dry Days ...... 0.0
  Report Time Step ......... 00:01:00
  Wet Time Step ............ 00:01:00
  Dry Time Step ............ 00:01:00
  Routing Time Step ........ 5.00 sec
  Variable Time Step ....... YES
  Maximum Trials ........... 8
  Number of Threads ........ 1
  Head Tolerance ........... 0.001500 m
  
  
  **************************        Volume         Depth
  Runoff Quantity Continuity     hectare-m            mm
  **************************     ---------       -------
  Total Precipitation ......         1.450         8.049
  Evaporation Loss .........         0.000         0.000
  Infiltration Loss ........         0.000         0.000
  Surface Runoff ...........         1.428         7.922
  Final Storage ............         0.023         0.127
  Continuity Error (%) .....        -0.007
  
  
  **************************        Volume        Volume
  Flow Routing Continuity        hectare-m      10^6 ltr
  **************************     ---------     ---------
  Dry Weather Inflow .......         0.396         3.956
  Wet Weather Inflow .......         1.428        14.277
  Groundwater Inflow .......         0.000         0.000
  RDII Inflow ..............         0.000         0.000
  External Inflow ..........         0.000         0.000
  External Outflow .........         0.602         6.024
  Flooding Loss ............         0.505         5.049
  Evaporation Loss .........         0.000         0.000
  Exfiltration Loss ........         0.000         0.000
  Initial Stored Volume ....         0.000         0.000
  Final Stored Volume ......         0.573         5.732
  Continuity Error (%) .....         7.825
  
  
  *************************
  Highest Continuity Errors
  *************************
  Node T5 (22.00%)
  Node T3 (16.88%)
  Node T1 (7.01%)
  Node T2 (6.45%)
  Node T6 (5.88%)
  
  
  ***************************
  Time-Step Critical Elements
  ***************************
  None
  
  
  ********************************
  Highest Flow Instability Indexes
  ********************************
  Link C13 (1)
  
  
  *************************
  Routing Time Step Summary
  *************************
  Minimum Time Step           :     1.47 sec
  Average Time Step           :     5.00 sec
  Maximum Time Step           :     5.00 sec
  Percent in Steady State     :    -0.00
  Average Iterations per Step :     2.18
  Percent Not Converging      :     0.28
  
  
  ***************************
  Subcatchment Runoff Summary
  ***************************
  
  ------------------------------------------------------------------------------------------------------------------------------
                            Total      Total      Total      Total     Imperv       Perv      Total       Total     Peak  Runoff
                           Precip      Runon       Evap      Infil     Runoff     Runoff     Runoff      Runoff   Runoff   Coeff
  Subcatchment                 mm         mm         mm         mm         mm         mm         mm    10^6 ltr      CMS
  ------------------------------------------------------------------------------------------------------------------------------
  SC01                       8.05       0.00       0.00       0.00       7.96       0.00       7.96        2.63     0.66   0.990
  SC02                       8.05       0.00       0.00       0.00       7.96       0.00       7.96        1.81     0.45   0.989
  SC03                       8.05       0.00       0.00       0.00       7.98       0.00       7.98        1.44     0.38   0.992
  SC04                       8.05       0.00       0.00       0.00       7.86       0.00       7.86        0.54     0.11   0.977
  SC05                       8.05       0.00       0.00       0.00       7.96       0.00       7.96        1.24     0.31   0.989
  SC06                       8.05       0.00       0.00       0.00       7.81       0.00       7.81        2.54     0.51   0.970
  SC07                       8.05       0.00       0.00       0.00       7.86       0.00       7.86        0.37     0.08   0.977
  SC08                       8.05       0.00       0.00       0.00       7.94       0.00       7.94        2.22     0.52   0.986
  SC09                       8.05       0.00       0.00       0.00       7.91       0.00       7.91        0.55     0.12   0.983
  SC010                      8.05       0.00       0.00       0.00       7.94       0.00       7.94        0.93     0.22   0.986
  
  
  ******************
  Node Depth Summary
  ******************
  
  ---------------------------------------------------------------------------------
                                 Average  Maximum  Maximum  Time of Max    Reported
                                   Depth    Depth      HGL   Occurrence   Max Depth
  Node                 Type       Meters   Meters   Meters  days hr:min      Meters
  ---------------------------------------------------------------------------------
  J1                   JUNCTION     0.08     0.19    34.19     0  02:21        0.19
  J3                   JUNCTION     0.13     0.17    18.17     0  03:51        0.17
  CSO7                 JUNCTION     0.19     1.20    35.20     0  02:14        1.20
  J5                   JUNCTION     0.07     0.15    32.15     0  02:25        0.15
  CSO9                 JUNCTION     0.22     2.00    42.00     0  02:18        2.00
  J8                   JUNCTION     0.11     0.27    36.27     0  02:28        0.27
  CSO8                 JUNCTION     0.25     2.00    34.00     0  02:15        2.00
  J10                  JUNCTION     0.10     0.28    29.28     0  02:21        0.28
  J13                  JUNCTION     0.07     0.18    29.18     0  02:21        0.18
  J15                  JUNCTION     0.21     0.36    15.36     0  02:26        0.36
  J16                  JUNCTION     0.07     0.20    30.20     0  02:20        0.20
  CSO10                JUNCTION     0.16     1.00    31.00     0  02:13        1.00
  J12                  JUNCTION     0.36     0.57    26.57     0  05:25        0.57
  J4                   JUNCTION     0.17     1.48    34.48     0  02:14        0.78
  J6                   JUNCTION     0.08     0.11    25.11     0  03:27        0.11
  J2                   JUNCTION     0.07     0.08    25.08     0  03:39        0.08
  J19                  JUNCTION     0.15     0.17     8.17     0  02:23        0.17
  J9                   JUNCTION     0.13     0.16    29.16     0  03:36        0.16
  J14                  JUNCTION     0.15     0.18    20.18     0  06:07        0.18
  J17                  JUNCTION     0.10     0.13    20.13     0  03:13        0.13
  J7                   JUNCTION     0.09     0.23    39.23     0  02:28        0.23
  J11                  JUNCTION     0.10     0.30    31.30     0  02:31        0.30
  J18                  JUNCTION     0.06     0.16    29.16     0  02:32        0.16
  Out_to_WWTP          OUTFALL      0.14     0.17     6.17     0  02:22        0.17
  T5                   STORAGE      3.42     5.00    32.00     0  02:49        5.00
  T4                   STORAGE      1.62     3.28    30.28     0  03:26        3.28
  T6                   STORAGE      2.64     5.00    36.00     0  02:43        5.00
  T3                   STORAGE      3.12     4.57    26.57     0  05:21        4.57
  T2                   STORAGE      1.55     3.23    24.23     0  03:12        3.23
  T1                   STORAGE      3.76     5.00    15.00     0  02:22        5.00
  
  
  *******************
  Node Inflow Summary
  *******************
  
  -------------------------------------------------------------------------------------------------
                                  Maximum  Maximum                  Lateral       Total        Flow
                                  Lateral    Total  Time of Max      Inflow      Inflow     Balance
                                   Inflow   Inflow   Occurrence      Volume      Volume       Error
  Node                 Type           CMS      CMS  days hr:min    10^6 ltr    10^6 ltr     Percent
  -------------------------------------------------------------------------------------------------
  J1                   JUNCTION     0.329    0.329     0  02:21         1.8         1.8       0.024
  J3                   JUNCTION     0.000    0.282     0  03:41           0        5.75       0.808
  CSO7                 JUNCTION     0.090    0.090     0  02:25       0.664       0.664       0.069
  J5                   JUNCTION     0.119    0.190     0  02:25        0.67         1.3       0.089
  CSO9                 JUNCTION     0.131    0.131     0  02:23       0.742       0.742       0.051
  J8                   JUNCTION     0.542    0.668     0  02:27        3.48        4.22       0.091
  CSO8                 JUNCTION     0.535    0.535     0  02:22        2.51        2.51       0.016
  J10                  JUNCTION     0.397    0.882     0  02:19        1.82         4.3       0.069
  J13                  JUNCTION     0.468    0.468     0  02:20        2.28        2.28      -0.239
  J15                  JUNCTION     0.000    1.139     0  02:22           0        11.9       0.918
  J16                  JUNCTION     0.684    0.684     0  02:20        3.18        3.18      -0.024
  CSO10                JUNCTION     0.227    0.227     0  02:22        1.07        1.07       0.017
  J12                  JUNCTION     0.000    1.000     0  02:22           0        7.51       3.025
  J4                   JUNCTION     0.000    0.076     0  02:14           0       0.638       0.516
  J6                   JUNCTION     0.000    0.064     0  03:26           0        1.15       0.384
  J2                   JUNCTION     0.000    0.039     0  02:50           0       0.842       0.627
  J19                  JUNCTION     0.000    0.271     0  02:22           0        6.04       0.210
  J9                   JUNCTION     0.000    0.175     0  02:43           0        3.23       0.587
  J14                  JUNCTION     0.000    0.181     0  05:21           0        3.78       0.257
  J17                  JUNCTION     0.000    0.113     0  03:12           0        1.97       0.460
  J7                   JUNCTION     0.000    0.127     0  02:28           0        0.74       0.424
  J11                  JUNCTION     0.000    0.486     0  02:31           0        2.48       0.249
  J18                  JUNCTION     0.000    0.202     0  02:32           0        1.05       0.051
  Out_to_WWTP          OUTFALL      0.000    0.271     0  02:24           0        6.02       0.000
  T5                   STORAGE      0.000    0.329     0  02:21           0         1.8      28.209
  T4                   STORAGE      0.000    0.190     0  02:26           0         1.3       5.726
  T6                   STORAGE      0.000    0.668     0  02:28           0        4.22       6.246
  T3                   STORAGE      0.000    0.992     0  02:25           0        7.29      20.312
  T2                   STORAGE      0.000    0.468     0  02:21           0        2.28       6.894
  T1                   STORAGE      0.000    1.129     0  02:26           0        11.8       7.540
  
  
  **********************
  Node Surcharge Summary
  **********************
  
  Surcharging occurs when water rises above the top of the highest conduit.
  ---------------------------------------------------------------------
                                               Max. Height   Min. Depth
                                   Hours       Above Crown    Below Rim
  Node                 Type      Surcharged         Meters       Meters
  ---------------------------------------------------------------------
  CSO7                 JUNCTION        0.81          0.945        0.000
  CSO9                 JUNCTION        0.79          1.682        0.000
  CSO8                 JUNCTION        0.75          1.547        0.000
  CSO10                JUNCTION        0.52          0.560        0.000
  J4                   JUNCTION        0.80          1.179        0.521
  
  
  *********************
  Node Flooding Summary
  *********************
  
  Flooding refers to all water that overflows a node, whether it ponds or not.
  --------------------------------------------------------------------------
                                                             Total   Maximum
                                 Maximum   Time of Max       Flood    Ponded
                        Hours       Rate    Occurrence      Volume     Depth
  Node                 Flooded       CMS   days hr:min    10^6 ltr    Meters
  --------------------------------------------------------------------------
  CSO7                    0.56     0.019      0  02:25       0.026     0.000
  CSO9                    0.17     0.004      0  02:23       0.002     0.000
  CSO8                    0.27     0.049      0  02:22       0.031     0.000
  CSO10                   0.29     0.025      0  02:22       0.017     0.000
  T5                      0.94     0.153      0  02:49       0.166     0.000
  T6                      0.88     0.426      0  02:43       0.578     0.000
  T1                      5.46     0.858      0  02:26       4.230     0.000
  
  
  **********************
  Storage Volume Summary
  **********************
  
  --------------------------------------------------------------------------------------------------
                         Average     Avg  Evap Exfil       Maximum     Max    Time of Max    Maximum
                          Volume    Pcnt  Pcnt  Pcnt        Volume    Pcnt     Occurrence    Outflow
  Storage Unit           1000 m3    Full  Loss  Loss       1000 m3    Full    days hr:min        CMS
  --------------------------------------------------------------------------------------------------
  T5                       0.342      68     0     0         0.500     100       0  02:49      0.039
  T4                       0.162      32     0     0         0.328      66       0  03:26      0.064
  T6                       0.316      53     0     0         0.600     100       0  02:43      0.175
  T3                       1.620      62     0     0         2.378      91       0  05:21      0.181
  T2                       0.311      31     0     0         0.647      65       0  03:12      0.113
  T1                       0.526      75     0     0         0.700     100       0  02:22      0.271
  
  
  ***********************
  Outfall Loading Summary
  ***********************
  
  -----------------------------------------------------------
                         Flow       Avg       Max       Total
                         Freq      Flow      Flow      Volume
  Outfall Node           Pcnt       CMS       CMS    10^6 ltr
  -----------------------------------------------------------
  Out_to_WWTP           99.01     0.216     0.271       6.024
  -----------------------------------------------------------
  System                99.01     0.216     0.271       6.024
  
  
  ********************
  Link Flow Summary
  ********************
  
  -----------------------------------------------------------------------------
                                 Maximum  Time of Max   Maximum    Max/    Max/
                                  |Flow|   Occurrence   |Veloc|    Full    Full
  Link                 Type          CMS  days hr:min     m/sec    Flow   Depth
  -----------------------------------------------------------------------------
  C1                   CONDUIT     0.039     0  03:39      0.91    0.01    0.12
  C6                   CONDUIT     0.071     0  02:25      1.29    1.13    0.75
  C2                   CONDUIT     0.064     0  03:27      1.32    0.07    0.23
  C9                   CONDUIT     0.127     0  02:28      1.30    0.43    0.50
  C16                  CONDUIT     0.486     0  02:21      1.77    0.05    0.14
  C3                   CONDUIT     0.181     0  05:21      2.04    0.07    0.17
  C19                  CONDUIT     0.113     0  03:13      1.11    0.04    0.24
  C11                  CONDUIT     0.282     0  03:51      1.83    0.01    0.12
  C20                  CONDUIT     0.683     0  02:20      2.63    0.02    0.14
  C22                  CONDUIT     0.202     0  02:32      1.50    0.09    0.33
  C12                  CONDUIT     0.175     0  03:35      1.09    0.01    0.18
  C17                  CONDUIT     0.878     0  02:21      2.94    0.04    0.16
  C10                  CONDUIT     0.668     0  02:28      1.66    0.07    0.59
  C13                  CONDUIT     0.992     0  02:25      1.53    0.06    0.64
  C18                  CONDUIT     0.468     0  02:21      1.72    0.02    0.54
  C23                  CONDUIT     1.129     0  02:26      1.26    0.12    0.62
  C4                   CONDUIT     0.329     0  02:21      1.98    0.08    0.60
  C7                   CONDUIT     0.190     0  02:26      1.43    0.05    0.57
  C14                  CONDUIT     0.271     0  02:24      2.08    0.02    0.09
  C5                   CONDUIT     0.076     0  02:14      1.48    1.29    1.00
  C8                   CONDUIT     0.127     0  02:28      1.75    1.60    0.86
  C15                  CONDUIT     0.486     0  02:31      3.43    1.55    0.83
  C21                  CONDUIT     0.202     0  02:32      1.83    1.16    0.69
  V4                   ORIFICE     0.064     0  03:26                      1.00
  V5                   ORIFICE     0.039     0  02:50                      1.00
  V1                   ORIFICE     0.271     0  02:22                      1.00
  V6                   ORIFICE     0.175     0  02:43                      1.00
  V3                   ORIFICE     0.181     0  05:21                      1.00
  V2                   ORIFICE     0.113     0  03:12                      1.00
  
  
  ***************************
  Flow Classification Summary
  ***************************
  
  -------------------------------------------------------------------------------------
                      Adjusted    ---------- Fraction of Time in Flow Class ---------- 
                       /Actual         Up    Down  Sub   Sup   Up    Down  Norm  Inlet 
  Conduit               Length    Dry  Dry   Dry   Crit  Crit  Crit  Crit  Ltd   Ctrl  
  -------------------------------------------------------------------------------------
  C1                      1.00   0.00  0.00  0.00  0.92  0.08  0.00  0.00  0.95  0.00
  C6                      1.00   0.00  0.00  0.00  0.13  0.87  0.00  0.00  0.00  0.00
  C2                      1.00   0.00  0.00  0.00  0.06  0.94  0.00  0.00  0.94  0.00
  C9                      1.00   0.00  0.00  0.00  1.00  0.00  0.00  0.00  1.00  0.00
  C16                     1.00   0.00  0.00  0.00  0.58  0.42  0.00  0.00  0.47  0.00
  C3                      1.00   0.00  0.00  0.00  0.05  0.94  0.00  0.00  0.07  0.00
  C19                     1.00   0.00  0.00  0.00  0.96  0.04  0.00  0.00  1.00  0.00
  C11                     1.00   0.00  0.00  0.00  0.27  0.73  0.00  0.00  1.00  0.00
  C20                     1.00   0.00  0.00  0.00  0.65  0.35  0.00  0.00  0.98  0.00
  C22                     1.00   0.00  0.00  0.00  0.84  0.16  0.00  0.00  1.00  0.00
  C12                     1.00   0.00  0.00  0.00  0.93  0.07  0.00  0.00  1.00  0.00
  C17                     1.00   0.00  0.00  0.00  0.59  0.41  0.00  0.00  0.97  0.00
  C10                     1.00   0.00  0.00  0.00  0.94  0.06  0.00  0.00  0.97  0.00
  C13                     1.00   0.00  0.00  0.00  0.85  0.15  0.00  0.00  0.31  0.00
  C18                     1.00   0.00  0.00  0.00  0.82  0.18  0.00  0.00  0.97  0.00
  C23                     1.00   0.00  0.00  0.00  0.90  0.10  0.00  0.00  0.94  0.00
  C4                      1.00   0.00  0.00  0.00  0.96  0.04  0.00  0.00  0.98  0.00
  C7                      1.00   0.00  0.00  0.00  0.91  0.09  0.00  0.00  0.96  0.00
  C14                     1.00   0.00  0.00  0.00  0.00  0.99  0.00  0.00  0.00  0.00
  C5                      1.00   0.00  0.00  0.00  0.89  0.11  0.00  0.00  0.87  0.00
  C8                      1.00   0.00  0.00  0.00  0.14  0.86  0.00  0.00  0.00  0.00
  C15                     1.00   0.00  0.00  0.00  0.00  1.00  0.00  0.00  0.00  0.00
  C21                     1.00   0.00  0.00  0.00  0.01  0.99  0.00  0.00  0.00  0.00
  
  
  *************************
  Conduit Surcharge Summary
  *************************
  
  ----------------------------------------------------------------------------
                                                           Hours        Hours 
                         --------- Hours Full --------   Above Full   Capacity
  Conduit                Both Ends  Upstream  Dnstream   Normal Flow   Limited
  ----------------------------------------------------------------------------
  C6                          0.01      0.80      0.01      0.64         0.01
  C10                         0.01      0.01      5.46      0.01         0.01
  C13                         0.01      0.01      5.43      0.01         0.01
  C18                         0.01      0.01      2.85      0.01         0.01
  C23                         0.01      0.01      5.98      0.01         0.01
  C4                          0.01      0.01      6.01      0.01         0.01
  C7                          0.01      0.01      5.28      0.01         0.01
  C5                          0.80      0.81      0.92      0.84         0.75
  C8                          0.01      0.79      0.01      0.80         0.01
  C15                         0.01      0.75      0.01      0.81         0.01
  C21                         0.01      0.52      0.01      0.48         0.01
  

  Analysis begun on:  Fri Sep  3 16:05:55 2021
  Analysis ended on:  Fri Sep  3 16:05:55 2021
  Total elapsed time: < 1 sec