
  EPA STORM WATER MANAGEMENT MODEL - VERSION 5.1 (Build 5.3.0.dev0)
  --------------------------------------------------------------

  
  *********************************************************
  NOTE: The summary statistics displayed in this report are
  based on results found at every computational time step,  
  not just on results from each reporting time step.
  *********************************************************
  
  ****************
  Analysis Options
  ****************
  Flow Units ............... CMS
  Process Models:
    Rainfall/Runoff ........ YES
    RDII ................... NO
    Snowmelt ............... NO
    Groundwater ............ NO
    Flow Routing ........... YES
    Ponding Allowed ........ YES
    Water Quality .......... NO
  Infiltration Method ...... HORTON
  Flow Routing Method ...... DYNWAVE
  Surcharge Method ......... EXTRAN
  Starting Date ............ 08/28/2015 08:00:00
  Ending Date .............. 08/28/2015 15:50:00
  Antecedent Dry Days ...... 0.0
  Report Time Step ......... 00:01:00
  Wet Time Step ............ 00:01:00
  Dry Time Step ............ 00:01:00
  Routing Time Step ........ 5.00 sec
  Variable Time Step ....... YES
  Maximum Trials ........... 8
  Number of Threads ........ 1
  Head Tolerance ........... 0.001500 m
  
  
  **************************        Volume         Depth
  Runoff Quantity Continuity     hectare-m            mm
  **************************     ---------       -------
  Total Precipitation ......         1.437         7.975
  Evaporation Loss .........         0.000         0.000
  Infiltration Loss ........         0.000         0.000
  Surface Runoff ...........         1.414         7.845
  Final Storage ............         0.024         0.131
  Continuity Error (%) .....        -0.007
  
  
  **************************        Volume        Volume
  Flow Routing Continuity        hectare-m      10^6 ltr
  **************************     ---------     ---------
  Dry Weather Inflow .......         0.396         3.956
  Wet Weather Inflow .......         1.414        14.137
  Groundwater Inflow .......         0.000         0.000
  RDII Inflow ..............         0.000         0.000
  External Inflow ..........         0.000         0.000
  External Outflow .........         0.593         5.930
  Flooding Loss ............         0.494         4.938
  Evaporation Loss .........         0.000         0.000
  Exfiltration Loss ........         0.000         0.000
  Initial Stored Volume ....         0.000         0.000
  Final Stored Volume ......         0.579         5.786
  Continuity Error (%) .....         7.947
  
  
  *************************
  Highest Continuity Errors
  *************************
  Node T5 (22.30%)
  Node T3 (17.10%)
  Node T1 (7.15%)
  Node T2 (6.91%)
  Node T6 (6.32%)
  
  
  ***************************
  Time-Step Critical Elements
  ***************************
  None
  
  
  ********************************
  Highest Flow Instability Indexes
  ********************************
  Link C13 (1)
  
  
  *************************
  Routing Time Step Summary
  *************************
  Minimum Time Step           :     0.86 sec
  Average Time Step           :     5.00 sec
  Maximum Time Step           :     5.00 sec
  Percent in Steady State     :     0.00
  Average Iterations per Step :     2.18
  Percent Not Converging      :     0.57
  
  
  ***************************
  Subcatchment Runoff Summary
  ***************************
  
  ------------------------------------------------------------------------------------------------------------------------------
                            Total      Total      Total      Total     Imperv       Perv      Total       Total     Peak  Runoff
                           Precip      Runon       Evap      Infil     Runoff     Runoff     Runoff      Runoff   Runoff   Coeff
  Subcatchment                 mm         mm         mm         mm         mm         mm         mm    10^6 ltr      CMS
  ------------------------------------------------------------------------------------------------------------------------------
  SC01                       7.98       0.00       0.00       0.00       7.89       0.00       7.89        2.60     0.68   0.989
  SC02                       7.98       0.00       0.00       0.00       7.88       0.00       7.88        1.79     0.46   0.989
  SC03                       7.98       0.00       0.00       0.00       7.91       0.00       7.91        1.42     0.39   0.991
  SC04                       7.98       0.00       0.00       0.00       7.78       0.00       7.78        0.54     0.12   0.976
  SC05                       7.98       0.00       0.00       0.00       7.88       0.00       7.88        1.23     0.32   0.988
  SC06                       7.98       0.00       0.00       0.00       7.73       0.00       7.73        2.52     0.53   0.969
  SC07                       7.98       0.00       0.00       0.00       7.78       0.00       7.78        0.37     0.08   0.976
  SC08                       7.98       0.00       0.00       0.00       7.86       0.00       7.86        2.20     0.54   0.985
  SC09                       7.98       0.00       0.00       0.00       7.83       0.00       7.83        0.54     0.13   0.982
  SC010                      7.98       0.00       0.00       0.00       7.86       0.00       7.86        0.92     0.23   0.986
  
  
  ******************
  Node Depth Summary
  ******************
  
  ---------------------------------------------------------------------------------
                                 Average  Maximum  Maximum  Time of Max    Reported
                                   Depth    Depth      HGL   Occurrence   Max Depth
  Node                 Type       Meters   Meters   Meters  days hr:min      Meters
  ---------------------------------------------------------------------------------
  J1                   JUNCTION     0.08     0.19    34.19     0  02:43        0.19
  J3                   JUNCTION     0.13     0.16    18.16     0  03:53        0.16
  CSO7                 JUNCTION     0.18     1.20    35.20     0  02:34        1.20
  J5                   JUNCTION     0.07     0.15    32.15     0  02:47        0.15
  CSO9                 JUNCTION     0.22     2.00    42.00     0  02:39        2.00
  J8                   JUNCTION     0.11     0.27    36.27     0  02:49        0.27
  CSO8                 JUNCTION     0.24     2.00    34.00     0  02:37        2.00
  J10                  JUNCTION     0.10     0.29    29.29     0  02:43        0.29
  J13                  JUNCTION     0.07     0.19    29.19     0  02:43        0.18
  J15                  JUNCTION     0.20     0.36    15.36     0  02:48        0.36
  J16                  JUNCTION     0.07     0.20    30.20     0  02:43        0.20
  CSO10                JUNCTION     0.16     1.00    31.00     0  02:35        1.00
  J12                  JUNCTION     0.34     0.55    26.55     0  05:36        0.55
  J4                   JUNCTION     0.16     1.23    34.23     0  02:34        0.83
  J6                   JUNCTION     0.08     0.11    25.11     0  03:38        0.11
  J2                   JUNCTION     0.07     0.08    25.08     0  03:51        0.08
  J19                  JUNCTION     0.14     0.17     8.17     0  02:38        0.17
  J9                   JUNCTION     0.13     0.16    29.16     0  03:46        0.16
  J14                  JUNCTION     0.14     0.18    20.18     0  06:18        0.18
  J17                  JUNCTION     0.10     0.13    20.13     0  03:22        0.13
  J7                   JUNCTION     0.09     0.23    39.23     0  02:53        0.23
  J11                  JUNCTION     0.10     0.30    31.30     0  02:55        0.30
  J18                  JUNCTION     0.06     0.16    29.16     0  02:56        0.16
  Out_to_WWTP          OUTFALL      0.14     0.17     6.17     0  02:37        0.17
  T5                   STORAGE      3.32     5.00    32.00     0  03:01        5.00
  T4                   STORAGE      1.57     3.24    30.24     0  03:37        3.24
  T6                   STORAGE      2.59     5.00    36.00     0  02:57        5.00
  T3                   STORAGE      3.00     4.55    26.55     0  05:32        4.55
  T2                   STORAGE      1.51     3.23    24.23     0  03:20        3.23
  T1                   STORAGE      3.67     5.00    15.00     0  02:36        5.00
  
  
  *******************
  Node Inflow Summary
  *******************
  
  -------------------------------------------------------------------------------------------------
                                  Maximum  Maximum                  Lateral       Total        Flow
                                  Lateral    Total  Time of Max      Inflow      Inflow     Balance
                                   Inflow   Inflow   Occurrence      Volume      Volume       Error
  Node                 Type           CMS      CMS  days hr:min    10^6 ltr    10^6 ltr     Percent
  -------------------------------------------------------------------------------------------------
  J1                   JUNCTION     0.336    0.336     0  02:43        1.79        1.79       0.028
  J3                   JUNCTION     0.000    0.281     0  03:51           0        5.62       0.828
  CSO7                 JUNCTION     0.093    0.093     0  02:47        0.66        0.66       0.069
  J5                   JUNCTION     0.124    0.195     0  02:47       0.664        1.29       0.096
  CSO9                 JUNCTION     0.135    0.135     0  02:45       0.737       0.737       0.060
  J8                   JUNCTION     0.567    0.694     0  02:49        3.46        4.19       0.100
  CSO8                 JUNCTION     0.550    0.550     0  02:44        2.49        2.49       0.022
  J10                  JUNCTION     0.404    0.890     0  02:42        1.81        4.25       0.075
  J13                  JUNCTION     0.478    0.478     0  02:43        2.26        2.26      -0.215
  J15                  JUNCTION     0.000    1.185     0  02:44           0        11.7       0.942
  J16                  JUNCTION     0.698    0.698     0  02:43        3.16        3.16      -0.023
  CSO10                JUNCTION     0.233    0.233     0  02:44        1.06        1.06       0.024
  J12                  JUNCTION     0.000    1.026     0  02:44           0        7.42       3.000
  J4                   JUNCTION     0.000    0.073     0  02:34           0       0.631       0.529
  J6                   JUNCTION     0.000    0.064     0  03:37           0        1.13       0.399
  J2                   JUNCTION     0.000    0.039     0  03:01           0       0.826       0.642
  J19                  JUNCTION     0.000    0.271     0  02:36           0        5.94       0.213
  J9                   JUNCTION     0.000    0.175     0  02:57           0        3.19       0.610
  J14                  JUNCTION     0.000    0.181     0  05:32           0        3.68       0.264
  J17                  JUNCTION     0.000    0.112     0  03:20           0        1.94       0.474
  J7                   JUNCTION     0.000    0.127     0  02:53           0       0.732       0.429
  J11                  JUNCTION     0.000    0.486     0  02:55           0        2.45       0.253
  J18                  JUNCTION     0.000    0.202     0  02:56           0        1.04       0.056
  Out_to_WWTP          OUTFALL      0.000    0.271     0  02:38           0        5.93       0.000
  T5                   STORAGE      0.000    0.336     0  02:43           0        1.79      28.698
  T4                   STORAGE      0.000    0.195     0  02:47           0        1.29       6.112
  T6                   STORAGE      0.000    0.693     0  02:49           0        4.18       6.749
  T3                   STORAGE      0.000    1.018     0  02:47           0         7.2      20.626
  T2                   STORAGE      0.000    0.478     0  02:43           0        2.27       7.427
  T1                   STORAGE      0.000    1.175     0  02:48           0        11.6       7.700
  
  
  **********************
  Node Surcharge Summary
  **********************
  
  Surcharging occurs when water rises above the top of the highest conduit.
  ---------------------------------------------------------------------
                                               Max. Height   Min. Depth
                                   Hours       Above Crown    Below Rim
  Node                 Type      Surcharged         Meters       Meters
  ---------------------------------------------------------------------
  CSO7                 JUNCTION        0.68          0.945        0.000
  CSO9                 JUNCTION        0.69          1.682        0.000
  CSO8                 JUNCTION        0.65          1.547        0.000
  CSO10                JUNCTION        0.47          0.560        0.000
  J4                   JUNCTION        0.66          0.934        0.766
  
  
  *********************
  Node Flooding Summary
  *********************
  
  Flooding refers to all water that overflows a node, whether it ponds or not.
  --------------------------------------------------------------------------
                                                             Total   Maximum
                                 Maximum   Time of Max       Flood    Ponded
                        Hours       Rate    Occurrence      Volume     Depth
  Node                 Flooded       CMS   days hr:min    10^6 ltr    Meters
  --------------------------------------------------------------------------
  CSO7                    0.51     0.022      0  02:47       0.029     0.000
  CSO9                    0.24     0.008      0  02:45       0.004     0.000
  CSO8                    0.30     0.064      0  02:44       0.044     0.000
  CSO10                   0.33     0.031      0  02:44       0.023     0.000
  T5                      0.89     0.221      0  03:01       0.165     0.000
  T6                      0.82     0.497      0  02:57       0.557     0.000
  T1                      5.22     0.904      0  02:48       4.115     0.000
  
  
  **********************
  Storage Volume Summary
  **********************
  
  --------------------------------------------------------------------------------------------------
                         Average     Avg  Evap Exfil       Maximum     Max    Time of Max    Maximum
                          Volume    Pcnt  Pcnt  Pcnt        Volume    Pcnt     Occurrence    Outflow
  Storage Unit           1000 m3    Full  Loss  Loss       1000 m3    Full    days hr:min        CMS
  --------------------------------------------------------------------------------------------------
  T5                       0.332      66     0     0         0.500     100       0  03:01      0.039
  T4                       0.157      31     0     0         0.324      65       0  03:37      0.064
  T6                       0.310      52     0     0         0.600     100       0  02:57      0.175
  T3                       1.562      60     0     0         2.367      91       0  05:32      0.181
  T2                       0.302      30     0     0         0.645      65       0  03:20      0.112
  T1                       0.514      73     0     0         0.700     100       0  02:36      0.271
  
  
  ***********************
  Outfall Loading Summary
  ***********************
  
  -----------------------------------------------------------
                         Flow       Avg       Max       Total
                         Freq      Flow      Flow      Volume
  Outfall Node           Pcnt       CMS       CMS    10^6 ltr
  -----------------------------------------------------------
  Out_to_WWTP           99.01     0.212     0.271       5.930
  -----------------------------------------------------------
  System                99.01     0.212     0.271       5.930
  
  
  ********************
  Link Flow Summary
  ********************
  
  -----------------------------------------------------------------------------
                                 Maximum  Time of Max   Maximum    Max/    Max/
                                  |Flow|   Occurrence   |Veloc|    Full    Full
  Link                 Type          CMS  days hr:min     m/sec    Flow   Depth
  -----------------------------------------------------------------------------
  C1                   CONDUIT     0.039     0  03:51      0.91    0.01    0.12
  C6                   CONDUIT     0.071     0  02:47      1.29    1.13    0.75
  C2                   CONDUIT     0.064     0  03:38      1.32    0.07    0.23
  C9                   CONDUIT     0.127     0  02:53      1.29    0.43    0.50
  C16                  CONDUIT     0.487     0  02:42      1.77    0.05    0.15
  C3                   CONDUIT     0.181     0  05:32      2.04    0.07    0.17
  C19                  CONDUIT     0.112     0  03:22      1.11    0.04    0.24
  C11                  CONDUIT     0.281     0  03:53      1.83    0.01    0.13
  C20                  CONDUIT     0.697     0  02:43      2.61    0.02    0.14
  C22                  CONDUIT     0.202     0  02:56      1.48    0.09    0.33
  C12                  CONDUIT     0.175     0  03:46      1.11    0.01    0.18
  C17                  CONDUIT     0.887     0  02:43      2.92    0.04    0.15
  C10                  CONDUIT     0.693     0  02:49      1.66    0.07    0.59
  C13                  CONDUIT     1.018     0  02:47      1.53    0.06    0.64
  C18                  CONDUIT     0.478     0  02:43      1.72    0.02    0.55
  C23                  CONDUIT     1.175     0  02:48      1.26    0.13    0.62
  C4                   CONDUIT     0.336     0  02:43      1.98    0.08    0.60
  C7                   CONDUIT     0.195     0  02:47      1.43    0.05    0.57
  C14                  CONDUIT     0.271     0  02:38      2.08    0.02    0.09
  C5                   CONDUIT     0.073     0  02:34      1.43    1.25    1.00
  C8                   CONDUIT     0.127     0  02:53      1.76    1.60    0.86
  C15                  CONDUIT     0.486     0  02:55      3.43    1.55    0.83
  C21                  CONDUIT     0.202     0  02:56      1.83    1.16    0.69
  V4                   ORIFICE     0.064     0  03:37                      1.00
  V5                   ORIFICE     0.039     0  03:01                      1.00
  V1                   ORIFICE     0.271     0  02:36                      1.00
  V6                   ORIFICE     0.175     0  02:57                      1.00
  V3                   ORIFICE     0.181     0  05:32                      1.00
  V2                   ORIFICE     0.112     0  03:20                      1.00
  
  
  ***************************
  Flow Classification Summary
  ***************************
  
  -------------------------------------------------------------------------------------
                      Adjusted    ---------- Fraction of Time in Flow Class ---------- 
                       /Actual         Up    Down  Sub   Sup   Up    Down  Norm  Inlet 
  Conduit               Length    Dry  Dry   Dry   Crit  Crit  Crit  Crit  Ltd   Ctrl  
  -------------------------------------------------------------------------------------
  C1                      1.00   0.00  0.00  0.00  0.92  0.08  0.00  0.00  0.95  0.00
  C6                      1.00   0.00  0.00  0.00  0.11  0.89  0.00  0.00  0.00  0.00
  C2                      1.00   0.00  0.00  0.00  0.04  0.95  0.00  0.00  0.94  0.00
  C9                      1.00   0.00  0.00  0.00  1.00  0.00  0.00  0.00  1.00  0.00
  C16                     1.00   0.00  0.00  0.00  0.57  0.43  0.00  0.00  0.45  0.00
  C3                      1.00   0.00  0.00  0.00  0.05  0.94  0.00  0.00  0.07  0.00
  C19                     1.00   0.00  0.00  0.00  0.97  0.03  0.00  0.00  1.00  0.00
  C11                     1.00   0.00  0.00  0.00  0.29  0.71  0.00  0.00  1.00  0.00
  C20                     1.00   0.00  0.00  0.00  0.63  0.37  0.00  0.00  0.98  0.00
  C22                     1.00   0.00  0.00  0.00  0.87  0.13  0.00  0.00  1.00  0.00
  C12                     1.00   0.00  0.00  0.00  0.93  0.07  0.00  0.00  1.00  0.00
  C17                     1.00   0.00  0.00  0.00  0.56  0.44  0.00  0.00  0.97  0.00
  C10                     1.00   0.00  0.00  0.00  0.94  0.06  0.00  0.00  0.97  0.00
  C13                     1.00   0.00  0.00  0.00  0.87  0.13  0.00  0.00  0.33  0.00
  C18                     1.00   0.00  0.00  0.00  0.81  0.19  0.00  0.00  0.97  0.00
  C23                     1.00   0.00  0.00  0.00  0.90  0.10  0.00  0.00  0.94  0.00
  C4                      1.00   0.00  0.00  0.00  0.96  0.04  0.00  0.00  0.98  0.00
  C7                      1.00   0.00  0.00  0.00  0.91  0.09  0.00  0.00  0.96  0.00
  C14                     1.00   0.00  0.00  0.00  0.00  0.99  0.00  0.00  0.00  0.00
  C5                      1.00   0.00  0.00  0.00  0.89  0.11  0.00  0.00  0.89  0.00
  C8                      1.00   0.00  0.00  0.00  0.12  0.88  0.00  0.00  0.00  0.00
  C15                     1.00   0.00  0.00  0.00  0.00  1.00  0.00  0.00  0.00  0.00
  C21                     1.00   0.00  0.00  0.00  0.00  1.00  0.00  0.00  0.00  0.00
  
  
  *************************
  Conduit Surcharge Summary
  *************************
  
  ----------------------------------------------------------------------------
                                                           Hours        Hours 
                         --------- Hours Full --------   Above Full   Capacity
  Conduit                Both Ends  Upstream  Dnstream   Normal Flow   Limited
  ----------------------------------------------------------------------------
  C6                          0.01      0.66      0.01      0.56         0.01
  C10                         0.01      0.01      5.42      0.01         0.01
  C13                         0.01      0.01      5.18      0.01         0.01
  C18                         0.01      0.01      2.71      0.01         0.01
  C23                         0.01      0.01      5.88      0.01         0.01
  C4                          0.01      0.01      5.90      0.01         0.01
  C7                          0.01      0.01      5.18      0.01         0.01
  C5                          0.68      0.68      0.78      0.73         0.65
  C8                          0.01      0.69      0.01      0.72         0.01
  C15                         0.01      0.65      0.01      0.72         0.01
  C21                         0.01      0.47      0.01      0.47         0.01
  

  Analysis begun on:  Fri Sep  3 16:07:31 2021
  Analysis ended on:  Fri Sep  3 16:07:31 2021
  Total elapsed time: < 1 sec