
  EPA STORM WATER MANAGEMENT MODEL - VERSION 5.1 (Build 5.3.0.dev0)
  --------------------------------------------------------------

  
  *********************************************************
  NOTE: The summary statistics displayed in this report are
  based on results found at every computational time step,  
  not just on results from each reporting time step.
  *********************************************************
  
  ****************
  Analysis Options
  ****************
  Flow Units ............... CMS
  Process Models:
    Rainfall/Runoff ........ YES
    RDII ................... NO
    Snowmelt ............... NO
    Groundwater ............ NO
    Flow Routing ........... YES
    Ponding Allowed ........ YES
    Water Quality .......... NO
  Infiltration Method ...... HORTON
  Flow Routing Method ...... DYNWAVE
  Surcharge Method ......... EXTRAN
  Starting Date ............ 08/28/2015 08:00:00
  Ending Date .............. 08/28/2015 15:50:00
  Antecedent Dry Days ...... 0.0
  Report Time Step ......... 00:01:00
  Wet Time Step ............ 00:01:00
  Dry Time Step ............ 00:01:00
  Routing Time Step ........ 5.00 sec
  Variable Time Step ....... YES
  Maximum Trials ........... 8
  Number of Threads ........ 1
  Head Tolerance ........... 0.001500 m
  
  
  **************************        Volume         Depth
  Runoff Quantity Continuity     hectare-m            mm
  **************************     ---------       -------
  Total Precipitation ......         1.461         8.109
  Evaporation Loss .........         0.000         0.000
  Infiltration Loss ........         0.000         0.000
  Surface Runoff ...........         1.438         7.981
  Final Storage ............         0.023         0.128
  Continuity Error (%) .....        -0.006
  
  
  **************************        Volume        Volume
  Flow Routing Continuity        hectare-m      10^6 ltr
  **************************     ---------     ---------
  Dry Weather Inflow .......         0.396         3.955
  Wet Weather Inflow .......         1.438        14.382
  Groundwater Inflow .......         0.000         0.000
  RDII Inflow ..............         0.000         0.000
  External Inflow ..........         0.000         0.000
  External Outflow .........         0.603         6.028
  Flooding Loss ............         0.509         5.086
  Evaporation Loss .........         0.000         0.000
  Exfiltration Loss ........         0.000         0.000
  Initial Stored Volume ....         0.000         0.000
  Final Stored Volume ......         0.579         5.789
  Continuity Error (%) .....         7.825
  
  
  *************************
  Highest Continuity Errors
  *************************
  Node T5 (21.93%)
  Node T3 (16.90%)
  Node T1 (6.97%)
  Node T2 (6.55%)
  Node T6 (5.95%)
  
  
  ***************************
  Time-Step Critical Elements
  ***************************
  None
  
  
  ********************************
  Highest Flow Instability Indexes
  ********************************
  Link C13 (1)
  
  
  *************************
  Routing Time Step Summary
  *************************
  Minimum Time Step           :     4.50 sec
  Average Time Step           :     5.00 sec
  Maximum Time Step           :     5.00 sec
  Percent in Steady State     :     0.00
  Average Iterations per Step :     2.19
  Percent Not Converging      :     0.46
  
  
  ***************************
  Subcatchment Runoff Summary
  ***************************
  
  ------------------------------------------------------------------------------------------------------------------------------
                            Total      Total      Total      Total     Imperv       Perv      Total       Total     Peak  Runoff
                           Precip      Runon       Evap      Infil     Runoff     Runoff     Runoff      Runoff   Runoff   Coeff
  Subcatchment                 mm         mm         mm         mm         mm         mm         mm    10^6 ltr      CMS
  ------------------------------------------------------------------------------------------------------------------------------
  SC01                       8.11       0.00       0.00       0.00       8.02       0.00       8.02        2.65     0.64   0.990
  SC02                       8.11       0.00       0.00       0.00       8.02       0.00       8.02        1.82     0.43   0.989
  SC03                       8.11       0.00       0.00       0.00       8.04       0.00       8.04        1.45     0.37   0.992
  SC04                       8.11       0.00       0.00       0.00       7.92       0.00       7.92        0.55     0.11   0.977
  SC05                       8.11       0.00       0.00       0.00       8.02       0.00       8.02        1.25     0.30   0.989
  SC06                       8.11       0.00       0.00       0.00       7.87       0.00       7.87        2.56     0.48   0.970
  SC07                       8.11       0.00       0.00       0.00       7.92       0.00       7.92        0.38     0.08   0.977
  SC08                       8.11       0.00       0.00       0.00       7.99       0.00       7.99        2.24     0.50   0.986
  SC09                       8.11       0.00       0.00       0.00       7.97       0.00       7.97        0.55     0.12   0.983
  SC010                      8.11       0.00       0.00       0.00       8.00       0.00       8.00        0.94     0.21   0.986
  
  
  ******************
  Node Depth Summary
  ******************
  
  ---------------------------------------------------------------------------------
                                 Average  Maximum  Maximum  Time of Max    Reported
                                   Depth    Depth      HGL   Occurrence   Max Depth
  Node                 Type       Meters   Meters   Meters  days hr:min      Meters
  ---------------------------------------------------------------------------------
  J1                   JUNCTION     0.08     0.19    34.19     0  02:18        0.19
  J3                   JUNCTION     0.13     0.17    18.17     0  03:51        0.17
  CSO7                 JUNCTION     0.20     1.20    35.20     0  02:13        1.20
  J5                   JUNCTION     0.07     0.15    32.15     0  02:23        0.15
  CSO9                 JUNCTION     0.22     1.94    41.94     0  02:19        1.94
  J8                   JUNCTION     0.11     0.26    36.26     0  02:25        0.26
  CSO8                 JUNCTION     0.24     2.00    34.00     0  02:13        2.00
  J10                  JUNCTION     0.10     0.28    29.28     0  02:18        0.28
  J13                  JUNCTION     0.07     0.18    29.18     0  02:18        0.18
  J15                  JUNCTION     0.21     0.35    15.35     0  02:23        0.35
  J16                  JUNCTION     0.07     0.20    30.20     0  02:17        0.20
  CSO10                JUNCTION     0.16     1.00    31.00     0  02:11        1.00
  J12                  JUNCTION     0.38     0.60    26.60     0  05:25        0.60
  J4                   JUNCTION     0.17     1.51    34.51     0  02:13        1.39
  J6                   JUNCTION     0.08     0.11    25.11     0  03:29        0.11
  J2                   JUNCTION     0.07     0.08    25.08     0  03:41        0.08
  J19                  JUNCTION     0.15     0.17     8.17     0  02:22        0.17
  J9                   JUNCTION     0.13     0.16    29.16     0  03:38        0.16
  J14                  JUNCTION     0.15     0.18    20.18     0  06:07        0.18
  J17                  JUNCTION     0.10     0.13    20.13     0  03:16        0.13
  J7                   JUNCTION     0.09     0.23    39.23     0  02:22        0.23
  J11                  JUNCTION     0.10     0.30    31.30     0  02:26        0.30
  J18                  JUNCTION     0.06     0.16    29.16     0  02:26        0.16
  Out_to_WWTP          OUTFALL      0.14     0.17     6.17     0  02:22        0.17
  T5                   STORAGE      3.43     5.00    32.00     0  02:52        5.00
  T4                   STORAGE      1.64     3.32    30.32     0  03:28        3.32
  T6                   STORAGE      2.65     5.00    36.00     0  02:44        5.00
  T3                   STORAGE      3.13     4.60    26.60     0  05:21        4.60
  T2                   STORAGE      1.56     3.24    24.24     0  03:14        3.24
  T1                   STORAGE      3.76     5.00    15.00     0  02:21        5.00
  
  
  *******************
  Node Inflow Summary
  *******************
  
  -------------------------------------------------------------------------------------------------
                                  Maximum  Maximum                  Lateral       Total        Flow
                                  Lateral    Total  Time of Max      Inflow      Inflow     Balance
                                   Inflow   Inflow   Occurrence      Volume      Volume       Error
  Node                 Type           CMS      CMS  days hr:min    10^6 ltr    10^6 ltr     Percent
  -------------------------------------------------------------------------------------------------
  J1                   JUNCTION     0.317    0.317     0  02:18        1.81        1.81       0.024
  J3                   JUNCTION     0.000    0.283     0  03:50           0        5.77       0.808
  CSO7                 JUNCTION     0.086    0.086     0  02:22       0.667       0.667       0.067
  J5                   JUNCTION     0.114    0.185     0  02:22       0.674        1.32       0.088
  CSO9                 JUNCTION     0.125    0.125     0  02:20       0.746       0.746       0.044
  J8                   JUNCTION     0.517    0.641     0  02:24         3.5        4.24       0.091
  CSO8                 JUNCTION     0.513    0.513     0  02:19        2.53        2.53       0.012
  J10                  JUNCTION     0.382    0.864     0  02:17        1.83        4.34       0.065
  J13                  JUNCTION     0.450    0.450     0  02:17        2.29        2.29      -0.239
  J15                  JUNCTION     0.000    1.104     0  02:19           0          12       0.917
  J16                  JUNCTION     0.658    0.658     0  02:17         3.2         3.2      -0.023
  CSO10                JUNCTION     0.218    0.218     0  02:19        1.08        1.08       0.018
  J12                  JUNCTION     0.000    0.978     0  02:19           0        7.57       3.408
  J4                   JUNCTION     0.000    0.076     0  02:12           0       0.647       0.512
  J6                   JUNCTION     0.000    0.065     0  03:28           0        1.16       0.384
  J2                   JUNCTION     0.000    0.039     0  02:52           0       0.843       0.627
  J19                  JUNCTION     0.000    0.271     0  02:21           0        6.04       0.210
  J9                   JUNCTION     0.000    0.175     0  02:44           0        3.24       0.584
  J14                  JUNCTION     0.000    0.182     0  05:21           0        3.79       0.257
  J17                  JUNCTION     0.000    0.113     0  03:14           0        1.98       0.460
  J7                   JUNCTION     0.000    0.125     0  02:20           0       0.746       0.422
  J11                  JUNCTION     0.000    0.486     0  02:25           0        2.52       0.246
  J18                  JUNCTION     0.000    0.202     0  02:26           0        1.07       0.050
  Out_to_WWTP          OUTFALL      0.000    0.271     0  02:23           0        6.03       0.000
  T5                   STORAGE      0.000    0.316     0  02:18           0        1.81      28.097
  T4                   STORAGE      0.000    0.185     0  02:23           0        1.32       5.823
  T6                   STORAGE      0.000    0.641     0  02:25           0        4.24       6.330
  T3                   STORAGE      0.000    0.970     0  02:22           0        7.32      20.338
  T2                   STORAGE      0.000    0.450     0  02:18           0         2.3       7.006
  T1                   STORAGE      0.000    1.093     0  02:23           0        11.9       7.494
  
  
  **********************
  Node Surcharge Summary
  **********************
  
  Surcharging occurs when water rises above the top of the highest conduit.
  ---------------------------------------------------------------------
                                               Max. Height   Min. Depth
                                   Hours       Above Crown    Below Rim
  Node                 Type      Surcharged         Meters       Meters
  ---------------------------------------------------------------------
  CSO7                 JUNCTION        0.90          0.945        0.000
  CSO9                 JUNCTION        0.89          1.626        0.056
  CSO8                 JUNCTION        0.80          1.547        0.000
  CSO10                JUNCTION        0.47          0.560        0.000
  J4                   JUNCTION        0.88          1.213        0.487
  
  
  *********************
  Node Flooding Summary
  *********************
  
  Flooding refers to all water that overflows a node, whether it ponds or not.
  --------------------------------------------------------------------------
                                                             Total   Maximum
                                 Maximum   Time of Max       Flood    Ponded
                        Hours       Rate    Occurrence      Volume     Depth
  Node                 Flooded       CMS   days hr:min    10^6 ltr    Meters
  --------------------------------------------------------------------------
  CSO7                    0.54     0.015      0  02:22       0.019     0.000
  CSO8                    0.20     0.027      0  02:19       0.013     0.000
  CSO10                   0.23     0.016      0  02:19       0.009     0.000
  T5                      0.94     0.146      0  02:52       0.173     0.000
  T6                      0.90     0.379      0  02:44       0.584     0.000
  T1                      5.48     0.823      0  02:23       4.289     0.000
  
  
  **********************
  Storage Volume Summary
  **********************
  
  --------------------------------------------------------------------------------------------------
                         Average     Avg  Evap Exfil       Maximum     Max    Time of Max    Maximum
                          Volume    Pcnt  Pcnt  Pcnt        Volume    Pcnt     Occurrence    Outflow
  Storage Unit           1000 m3    Full  Loss  Loss       1000 m3    Full    days hr:min        CMS
  --------------------------------------------------------------------------------------------------
  T5                       0.343      69     0     0         0.500     100       0  02:52      0.039
  T4                       0.164      33     0     0         0.332      66       0  03:28      0.065
  T6                       0.319      53     0     0         0.600     100       0  02:44      0.175
  T3                       1.629      63     0     0         2.392      92       0  05:21      0.187
  T2                       0.313      31     0     0         0.647      65       0  03:14      0.113
  T1                       0.527      75     0     0         0.700     100       0  02:21      0.271
  
  
  ***********************
  Outfall Loading Summary
  ***********************
  
  -----------------------------------------------------------
                         Flow       Avg       Max       Total
                         Freq      Flow      Flow      Volume
  Outfall Node           Pcnt       CMS       CMS    10^6 ltr
  -----------------------------------------------------------
  Out_to_WWTP           99.01     0.216     0.271       6.028
  -----------------------------------------------------------
  System                99.01     0.216     0.271       6.028
  
  
  ********************
  Link Flow Summary
  ********************
  
  -----------------------------------------------------------------------------
                                 Maximum  Time of Max   Maximum    Max/    Max/
                                  |Flow|   Occurrence   |Veloc|    Full    Full
  Link                 Type          CMS  days hr:min     m/sec    Flow   Depth
  -----------------------------------------------------------------------------
  C1                   CONDUIT     0.039     0  03:41      0.91    0.01    0.12
  C6                   CONDUIT     0.071     0  02:23      1.29    1.13    0.74
  C2                   CONDUIT     0.065     0  03:29      1.32    0.07    0.23
  C9                   CONDUIT     0.124     0  02:23      1.31    0.43    0.49
  C16                  CONDUIT     0.486     0  02:19      1.77    0.05    0.14
  C3                   CONDUIT     0.182     0  05:21      2.04    0.07    0.17
  C19                  CONDUIT     0.113     0  03:16      1.11    0.04    0.23
  C11                  CONDUIT     0.283     0  03:51      1.84    0.01    0.12
  C20                  CONDUIT     0.657     0  02:17      2.59    0.02    0.14
  C22                  CONDUIT     0.202     0  02:27      1.50    0.09    0.32
  C12                  CONDUIT     0.175     0  03:37      1.05    0.01    0.19
  C17                  CONDUIT     0.860     0  02:18      2.92    0.04    0.16
  C10                  CONDUIT     0.641     0  02:25      1.66    0.07    0.59
  C13                  CONDUIT     0.970     0  02:22      1.53    0.06    0.65
  C18                  CONDUIT     0.450     0  02:18      1.72    0.02    0.54
  C23                  CONDUIT     1.093     0  02:23      1.26    0.12    0.62
  C4                   CONDUIT     0.316     0  02:18      1.98    0.08    0.59
  C7                   CONDUIT     0.185     0  02:23      1.43    0.05    0.57
  C14                  CONDUIT     0.271     0  02:23      2.08    0.02    0.09
  C5                   CONDUIT     0.076     0  02:12      1.49    1.30    1.00
  C8                   CONDUIT     0.125     0  02:20      1.73    1.58    0.86
  C15                  CONDUIT     0.486     0  02:25      3.43    1.55    0.83
  C21                  CONDUIT     0.202     0  02:26      1.83    1.16    0.69
  V4                   ORIFICE     0.065     0  03:28                      1.00
  V5                   ORIFICE     0.039     0  02:52                      1.00
  V1                   ORIFICE     0.271     0  02:21                      1.00
  V6                   ORIFICE     0.175     0  02:44                      1.00
  V3                   ORIFICE     0.182     0  05:21                      1.00
  V2                   ORIFICE     0.113     0  03:14                      1.00
  
  
  ***************************
  Flow Classification Summary
  ***************************
  
  -------------------------------------------------------------------------------------
                      Adjusted    ---------- Fraction of Time in Flow Class ---------- 
                       /Actual         Up    Down  Sub   Sup   Up    Down  Norm  Inlet 
  Conduit               Length    Dry  Dry   Dry   Crit  Crit  Crit  Crit  Ltd   Ctrl  
  -------------------------------------------------------------------------------------
  C1                      1.00   0.00  0.00  0.00  0.92  0.08  0.00  0.00  0.95  0.00
  C6                      1.00   0.00  0.00  0.00  0.14  0.86  0.00  0.00  0.00  0.00
  C2                      1.00   0.00  0.00  0.00  0.05  0.94  0.00  0.00  0.94  0.00
  C9                      1.00   0.00  0.00  0.00  1.00  0.00  0.00  0.00  1.00  0.00
  C16                     1.00   0.00  0.00  0.00  0.58  0.42  0.00  0.00  0.47  0.00
  C3                      1.00   0.00  0.00  0.00  0.05  0.94  0.00  0.00  0.07  0.00
  C19                     1.00   0.00  0.00  0.00  0.98  0.02  0.00  0.00  1.00  0.00
  C11                     1.00   0.00  0.00  0.00  0.27  0.73  0.00  0.00  1.00  0.00
  C20                     1.00   0.00  0.00  0.00  0.64  0.36  0.00  0.00  0.98  0.00
  C22                     1.00   0.00  0.00  0.00  0.85  0.15  0.00  0.00  1.00  0.00
  C12                     1.00   0.00  0.00  0.00  0.93  0.07  0.00  0.00  1.00  0.00
  C17                     1.00   0.00  0.00  0.00  0.59  0.41  0.00  0.00  0.97  0.00
  C10                     1.00   0.00  0.00  0.00  0.94  0.06  0.00  0.00  0.97  0.00
  C13                     1.00   0.00  0.00  0.00  0.85  0.15  0.00  0.00  0.31  0.00
  C18                     1.00   0.00  0.00  0.00  0.82  0.18  0.00  0.00  0.97  0.00
  C23                     1.00   0.00  0.00  0.00  0.90  0.10  0.00  0.00  0.94  0.00
  C4                      1.00   0.00  0.00  0.00  0.96  0.04  0.00  0.00  0.98  0.00
  C7                      1.00   0.00  0.00  0.00  0.91  0.09  0.00  0.00  0.96  0.00
  C14                     1.00   0.00  0.00  0.00  0.00  0.99  0.00  0.00  0.00  0.00
  C5                      1.00   0.00  0.00  0.00  0.89  0.11  0.00  0.00  0.86  0.00
  C8                      1.00   0.00  0.00  0.00  0.15  0.85  0.00  0.00  0.00  0.00
  C15                     1.00   0.00  0.00  0.00  0.00  1.00  0.00  0.00  0.00  0.00
  C21                     1.00   0.00  0.00  0.00  0.01  0.99  0.00  0.00  0.00  0.00
  
  
  *************************
  Conduit Surcharge Summary
  *************************
  
  ----------------------------------------------------------------------------
                                                           Hours        Hours 
                         --------- Hours Full --------   Above Full   Capacity
  Conduit                Both Ends  Upstream  Dnstream   Normal Flow   Limited
  ----------------------------------------------------------------------------
  C6                          0.01      0.88      0.01      0.70         0.01
  C10                         0.01      0.01      5.49      0.01         0.01
  C13                         0.01      0.01      5.44      0.01         0.01
  C18                         0.01      0.01      2.90      0.01         0.01
  C23                         0.01      0.01      5.99      0.01         0.01
  C4                          0.01      0.01      6.01      0.01         0.01
  C7                          0.01      0.01      5.34      0.01         0.01
  C5                          0.89      0.90      0.99      0.94         0.86
  C8                          0.01      0.89      0.01      0.88         0.01
  C15                         0.01      0.80      0.01      0.87         0.01
  C21                         0.01      0.47      0.01      0.42         0.01
  

  Analysis begun on:  Fri Sep  3 16:07:21 2021
  Analysis ended on:  Fri Sep  3 16:07:22 2021
  Total elapsed time: 00:00:01