
  EPA STORM WATER MANAGEMENT MODEL - VERSION 5.1 (Build 5.3.0.dev0)
  --------------------------------------------------------------

  
  *********************************************************
  NOTE: The summary statistics displayed in this report are
  based on results found at every computational time step,  
  not just on results from each reporting time step.
  *********************************************************
  
  ****************
  Analysis Options
  ****************
  Flow Units ............... CMS
  Process Models:
    Rainfall/Runoff ........ YES
    RDII ................... NO
    Snowmelt ............... NO
    Groundwater ............ NO
    Flow Routing ........... YES
    Ponding Allowed ........ YES
    Water Quality .......... NO
  Infiltration Method ...... HORTON
  Flow Routing Method ...... DYNWAVE
  Surcharge Method ......... EXTRAN
  Starting Date ............ 08/28/2015 08:00:00
  Ending Date .............. 08/28/2015 15:50:00
  Antecedent Dry Days ...... 0.0
  Report Time Step ......... 00:01:00
  Wet Time Step ............ 00:01:00
  Dry Time Step ............ 00:01:00
  Routing Time Step ........ 5.00 sec
  Variable Time Step ....... YES
  Maximum Trials ........... 8
  Number of Threads ........ 1
  Head Tolerance ........... 0.001500 m
  
  
  **************************        Volume         Depth
  Runoff Quantity Continuity     hectare-m            mm
  **************************     ---------       -------
  Total Precipitation ......         1.130         6.273
  Evaporation Loss .........         0.000         0.000
  Infiltration Loss ........         0.000         0.000
  Surface Runoff ...........         1.108         6.147
  Final Storage ............         0.023         0.127
  Continuity Error (%) .....        -0.012
  
  
  **************************        Volume        Volume
  Flow Routing Continuity        hectare-m      10^6 ltr
  **************************     ---------     ---------
  Dry Weather Inflow .......         0.396         3.955
  Wet Weather Inflow .......         1.108        11.077
  Groundwater Inflow .......         0.000         0.000
  RDII Inflow ..............         0.000         0.000
  External Inflow ..........         0.000         0.000
  External Outflow .........         0.622         6.221
  Flooding Loss ............         0.266         2.662
  Evaporation Loss .........         0.000         0.000
  Exfiltration Loss ........         0.000         0.000
  Initial Stored Volume ....         0.000         0.000
  Final Stored Volume ......         0.492         4.923
  Continuity Error (%) .....         8.162
  
  
  *************************
  Highest Continuity Errors
  *************************
  Node T5 (23.52%)
  Node T3 (16.14%)
  Node T1 (7.98%)
  Node T6 (6.40%)
  Node T4 (4.24%)
  
  
  ***************************
  Time-Step Critical Elements
  ***************************
  None
  
  
  ********************************
  Highest Flow Instability Indexes
  ********************************
  All links are stable.
  
  
  *************************
  Routing Time Step Summary
  *************************
  Minimum Time Step           :     4.50 sec
  Average Time Step           :     5.00 sec
  Maximum Time Step           :     5.00 sec
  Percent in Steady State     :     0.00
  Average Iterations per Step :     2.02
  Percent Not Converging      :     0.07
  
  
  ***************************
  Subcatchment Runoff Summary
  ***************************
  
  ------------------------------------------------------------------------------------------------------------------------------
                            Total      Total      Total      Total     Imperv       Perv      Total       Total     Peak  Runoff
                           Precip      Runon       Evap      Infil     Runoff     Runoff     Runoff      Runoff   Runoff   Coeff
  Subcatchment                 mm         mm         mm         mm         mm         mm         mm    10^6 ltr      CMS
  ------------------------------------------------------------------------------------------------------------------------------
  SC01                       6.27       0.00       0.00       0.00       6.19       0.00       6.19        2.04     0.46   0.987
  SC02                       6.27       0.00       0.00       0.00       6.18       0.00       6.18        1.41     0.30   0.986
  SC03                       6.27       0.00       0.00       0.00       6.21       0.00       6.21        1.12     0.28   0.989
  SC04                       6.27       0.00       0.00       0.00       6.09       0.00       6.09        0.42     0.07   0.970
  SC05                       6.27       0.00       0.00       0.00       6.18       0.00       6.18        0.96     0.21   0.986
  SC06                       6.27       0.00       0.00       0.00       6.04       0.00       6.04        1.97     0.28   0.963
  SC07                       6.27       0.00       0.00       0.00       6.09       0.00       6.09        0.29     0.05   0.971
  SC08                       6.27       0.00       0.00       0.00       6.16       0.00       6.16        1.72     0.34   0.982
  SC09                       6.27       0.00       0.00       0.00       6.14       0.00       6.14        0.42     0.08   0.978
  SC010                      6.27       0.00       0.00       0.00       6.16       0.00       6.16        0.72     0.14   0.982
  
  
  ******************
  Node Depth Summary
  ******************
  
  ---------------------------------------------------------------------------------
                                 Average  Maximum  Maximum  Time of Max    Reported
                                   Depth    Depth      HGL   Occurrence   Max Depth
  Node                 Type       Meters   Meters   Meters  days hr:min      Meters
  ---------------------------------------------------------------------------------
  J1                   JUNCTION     0.07     0.16    34.16     0  01:30        0.16
  J3                   JUNCTION     0.13     0.16    18.16     0  04:18        0.16
  CSO7                 JUNCTION     0.10     0.20    34.20     0  01:35        0.20
  J5                   JUNCTION     0.06     0.12    32.12     0  01:36        0.12
  CSO9                 JUNCTION     0.11     0.52    40.52     0  01:33        0.44
  J8                   JUNCTION     0.11     0.20    36.20     0  01:36        0.20
  CSO8                 JUNCTION     0.14     0.89    32.89     0  01:29        0.71
  J10                  JUNCTION     0.10     0.24    29.24     0  01:33        0.24
  J13                  JUNCTION     0.06     0.15    29.15     0  01:30        0.15
  J15                  JUNCTION     0.20     0.29    15.29     0  01:36        0.29
  J16                  JUNCTION     0.07     0.17    30.17     0  01:29        0.17
  CSO10                JUNCTION     0.12     0.34    30.34     0  01:33        0.34
  J12                  JUNCTION     0.15     0.27    26.27     0  01:36        0.27
  J4                   JUNCTION     0.12     0.23    33.23     0  01:37        0.23
  J6                   JUNCTION     0.08     0.10    25.10     0  03:32        0.10
  J2                   JUNCTION     0.06     0.08    25.08     0  03:55        0.08
  J19                  JUNCTION     0.15     0.17     8.17     0  02:20        0.17
  J9                   JUNCTION     0.13     0.16    29.16     0  03:35        0.16
  J14                  JUNCTION     0.14     0.18    20.18     0  05:58        0.18
  J17                  JUNCTION     0.10     0.12    20.12     0  03:20        0.12
  J7                   JUNCTION     0.08     0.18    39.18     0  01:36        0.18
  J11                  JUNCTION     0.10     0.25    31.25     0  01:35        0.25
  J18                  JUNCTION     0.06     0.14    29.14     0  01:34        0.14
  Out_to_WWTP          OUTFALL      0.15     0.17     6.17     0  02:19        0.17
  T5                   STORAGE      3.09     4.42    31.42     0  03:53        4.42
  T4                   STORAGE      1.21     2.29    29.29     0  03:31        2.29
  T6                   STORAGE      2.43     4.59    35.59     0  03:33        4.59
  T3                   STORAGE      2.75     4.04    26.04     0  05:37        4.04
  T2                   STORAGE      1.12     2.15    23.15     0  03:19        2.15
  T1                   STORAGE      3.92     5.00    15.00     0  02:19        5.00
  
  
  *******************
  Node Inflow Summary
  *******************
  
  -------------------------------------------------------------------------------------------------
                                  Maximum  Maximum                  Lateral       Total        Flow
                                  Lateral    Total  Time of Max      Inflow      Inflow     Balance
                                   Inflow   Inflow   Occurrence      Volume      Volume       Error
  Node                 Type           CMS      CMS  days hr:min    10^6 ltr    10^6 ltr     Percent
  -------------------------------------------------------------------------------------------------
  J1                   JUNCTION     0.226    0.226     0  01:30        1.53        1.53      -0.000
  J3                   JUNCTION     0.000    0.255     0  04:16           0        5.41       0.806
  CSO7                 JUNCTION     0.055    0.055     0  01:35        0.58        0.58       0.081
  J5                   JUNCTION     0.070    0.122     0  01:35       0.548        1.12       0.072
  CSO9                 JUNCTION     0.083    0.083     0  01:35       0.619       0.619       0.068
  J8                   JUNCTION     0.306    0.386     0  01:35        2.91        3.52       0.072
  CSO8                 JUNCTION     0.346    0.346     0  01:33        2.02        2.02       0.018
  J10                  JUNCTION     0.293    0.612     0  01:31         1.5        3.51       0.129
  J13                  JUNCTION     0.320    0.320     0  01:30        1.87        1.87      -0.331
  J15                  JUNCTION     0.000    0.763     0  01:34           0        10.5       0.952
  J16                  JUNCTION     0.473    0.473     0  01:29         2.6         2.6      -0.034
  CSO10                JUNCTION     0.148    0.148     0  01:33       0.863       0.863       0.045
  J12                  JUNCTION     0.000    0.677     0  01:34           0        6.64       0.373
  J4                   JUNCTION     0.000    0.055     0  01:35           0       0.579       0.648
  J6                   JUNCTION     0.000    0.054     0  03:31           0        1.01       0.378
  J2                   JUNCTION     0.000    0.037     0  03:53           0       0.812       0.622
  J19                  JUNCTION     0.000    0.271     0  02:19           0        6.23       0.203
  J9                   JUNCTION     0.000    0.168     0  03:33           0        3.15       0.647
  J14                  JUNCTION     0.000    0.170     0  05:37           0         3.6       0.256
  J17                  JUNCTION     0.000    0.092     0  03:19           0        1.71       0.440
  J7                   JUNCTION     0.000    0.083     0  01:35           0       0.619       0.519
  J11                  JUNCTION     0.000    0.346     0  01:33           0        2.02       0.317
  J18                  JUNCTION     0.000    0.148     0  01:33           0       0.863       0.067
  Out_to_WWTP          OUTFALL      0.000    0.271     0  02:21           0        6.22       0.000
  T5                   STORAGE      0.000    0.226     0  01:30           0        1.53      30.751
  T4                   STORAGE      0.000    0.121     0  01:36           0        1.12       4.425
  T6                   STORAGE      0.000    0.381     0  01:36           0        3.52       6.839
  T3                   STORAGE      0.000    0.670     0  01:36           0        6.62      19.249
  T2                   STORAGE      0.000    0.319     0  01:30           0        1.88       4.208
  T1                   STORAGE      0.000    0.751     0  01:36           0        10.4       8.667
  
  
  **********************
  Node Surcharge Summary
  **********************
  
  Surcharging occurs when water rises above the top of the highest conduit.
  ---------------------------------------------------------------------
                                               Max. Height   Min. Depth
                                   Hours       Above Crown    Below Rim
  Node                 Type      Surcharged         Meters       Meters
  ---------------------------------------------------------------------
  CSO9                 JUNCTION        0.08          0.201        1.481
  CSO8                 JUNCTION        0.15          0.438        1.109
  
  
  *********************
  Node Flooding Summary
  *********************
  
  Flooding refers to all water that overflows a node, whether it ponds or not.
  --------------------------------------------------------------------------
                                                             Total   Maximum
                                 Maximum   Time of Max       Flood    Ponded
                        Hours       Rate    Occurrence      Volume     Depth
  Node                 Flooded       CMS   days hr:min    10^6 ltr    Meters
  --------------------------------------------------------------------------
  T1                      5.51     0.433      0  03:03       2.662     0.000
  
  
  **********************
  Storage Volume Summary
  **********************
  
  --------------------------------------------------------------------------------------------------
                         Average     Avg  Evap Exfil       Maximum     Max    Time of Max    Maximum
                          Volume    Pcnt  Pcnt  Pcnt        Volume    Pcnt     Occurrence    Outflow
  Storage Unit           1000 m3    Full  Loss  Loss       1000 m3    Full    days hr:min        CMS
  --------------------------------------------------------------------------------------------------
  T5                       0.309      62     0     0         0.442      88       0  03:53      0.037
  T4                       0.121      24     0     0         0.229      46       0  03:31      0.054
  T6                       0.292      49     0     0         0.551      92       0  03:33      0.168
  T3                       1.433      55     0     0         2.101      81       0  05:37      0.170
  T2                       0.225      22     0     0         0.430      43       0  03:19      0.092
  T1                       0.549      78     0     0         0.700     100       0  02:19      0.271
  
  
  ***********************
  Outfall Loading Summary
  ***********************
  
  -----------------------------------------------------------
                         Flow       Avg       Max       Total
                         Freq      Flow      Flow      Volume
  Outfall Node           Pcnt       CMS       CMS    10^6 ltr
  -----------------------------------------------------------
  Out_to_WWTP           99.01     0.223     0.271       6.221
  -----------------------------------------------------------
  System                99.01     0.223     0.271       6.221
  
  
  ********************
  Link Flow Summary
  ********************
  
  -----------------------------------------------------------------------------
                                 Maximum  Time of Max   Maximum    Max/    Max/
                                  |Flow|   Occurrence   |Veloc|    Full    Full
  Link                 Type          CMS  days hr:min     m/sec    Flow   Depth
  -----------------------------------------------------------------------------
  C1                   CONDUIT     0.037     0  03:55      0.91    0.01    0.12
  C6                   CONDUIT     0.053     0  01:37      1.25    0.84    0.58
  C2                   CONDUIT     0.054     0  03:32      1.22    0.06    0.21
  C9                   CONDUIT     0.080     0  01:36      1.17    0.27    0.38
  C16                  CONDUIT     0.344     0  01:35      1.57    0.03    0.12
  C3                   CONDUIT     0.170     0  05:37      2.00    0.07    0.17
  C19                  CONDUIT     0.092     0  03:20      1.00    0.03    0.20
  C11                  CONDUIT     0.255     0  04:18      1.81    0.01    0.11
  C20                  CONDUIT     0.473     0  01:29      2.61    0.01    0.11
  C22                  CONDUIT     0.147     0  01:34      1.36    0.07    0.27
  C12                  CONDUIT     0.168     0  03:35      1.39    0.01    0.10
  C17                  CONDUIT     0.610     0  01:33      2.69    0.03    0.13
  C10                  CONDUIT     0.381     0  01:36      1.66    0.04    0.56
  C13                  CONDUIT     0.670     0  01:36      1.69    0.04    0.56
  C18                  CONDUIT     0.319     0  01:30      1.72    0.01    0.53
  C23                  CONDUIT     0.751     0  01:36      1.26    0.08    0.60
  C4                   CONDUIT     0.226     0  01:30      1.98    0.05    0.58
  C7                   CONDUIT     0.121     0  01:36      1.43    0.03    0.55
  C14                  CONDUIT     0.271     0  02:21      2.08    0.02    0.09
  C5                   CONDUIT     0.055     0  01:35      1.22    0.93    0.83
  C8                   CONDUIT     0.083     0  01:35      1.33    1.04    0.78
  C15                  CONDUIT     0.346     0  01:33      2.68    1.10    0.78
  C21                  CONDUIT     0.148     0  01:33      1.74    0.85    0.54
  V4                   ORIFICE     0.054     0  03:31                      1.00
  V5                   ORIFICE     0.037     0  03:53                      1.00
  V1                   ORIFICE     0.271     0  02:19                      1.00
  V6                   ORIFICE     0.168     0  03:33                      1.00
  V3                   ORIFICE     0.170     0  05:37                      1.00
  V2                   ORIFICE     0.092     0  03:19                      1.00
  
  
  ***************************
  Flow Classification Summary
  ***************************
  
  -------------------------------------------------------------------------------------
                      Adjusted    ---------- Fraction of Time in Flow Class ---------- 
                       /Actual         Up    Down  Sub   Sup   Up    Down  Norm  Inlet 
  Conduit               Length    Dry  Dry   Dry   Crit  Crit  Crit  Crit  Ltd   Ctrl  
  -------------------------------------------------------------------------------------
  C1                      1.00   0.00  0.00  0.00  0.92  0.08  0.00  0.00  0.95  0.00
  C6                      1.00   0.00  0.00  0.00  0.01  0.99  0.00  0.00  0.00  0.00
  C2                      1.00   0.00  0.00  0.00  0.14  0.86  0.00  0.00  0.94  0.00
  C9                      1.00   0.00  0.00  0.00  1.00  0.00  0.00  0.00  1.00  0.00
  C16                     1.00   0.00  0.00  0.00  0.57  0.43  0.00  0.00  0.45  0.00
  C3                      1.00   0.00  0.00  0.00  0.05  0.94  0.00  0.00  0.07  0.00
  C19                     1.00   0.00  0.00  0.00  1.00  0.00  0.00  0.00  1.00  0.00
  C11                     1.00   0.00  0.00  0.00  0.17  0.83  0.00  0.00  1.00  0.00
  C20                     1.00   0.00  0.00  0.00  0.63  0.37  0.00  0.00  0.98  0.00
  C22                     1.00   0.00  0.00  0.00  0.91  0.09  0.00  0.00  1.00  0.00
  C12                     1.00   0.00  0.00  0.00  0.36  0.64  0.00  0.00  0.57  0.00
  C17                     1.00   0.00  0.00  0.00  0.52  0.48  0.00  0.00  0.94  0.00
  C10                     1.00   0.00  0.00  0.00  0.94  0.06  0.00  0.00  0.97  0.00
  C13                     1.00   0.00  0.00  0.00  0.83  0.17  0.00  0.00  0.91  0.00
  C18                     1.00   0.00  0.00  0.00  0.83  0.17  0.00  0.00  0.97  0.00
  C23                     1.00   0.00  0.00  0.00  0.90  0.10  0.00  0.00  0.94  0.00
  C4                      1.00   0.00  0.00  0.00  0.96  0.04  0.00  0.00  0.98  0.00
  C7                      1.00   0.00  0.00  0.00  0.91  0.09  0.00  0.00  0.96  0.00
  C14                     1.00   0.00  0.00  0.00  0.00  0.99  0.00  0.00  0.00  0.00
  C5                      1.00   0.00  0.00  0.00  0.92  0.08  0.00  0.00  0.97  0.00
  C8                      1.00   0.00  0.00  0.00  0.04  0.96  0.00  0.00  0.00  0.00
  C15                     1.00   0.00  0.00  0.00  0.00  1.00  0.00  0.00  0.00  0.00
  C21                     1.00   0.00  0.00  0.00  0.00  1.00  0.00  0.00  0.00  0.00
  
  
  *************************
  Conduit Surcharge Summary
  *************************
  
  ----------------------------------------------------------------------------
                                                           Hours        Hours 
                         --------- Hours Full --------   Above Full   Capacity
  Conduit                Both Ends  Upstream  Dnstream   Normal Flow   Limited
  ----------------------------------------------------------------------------
  C10                         0.01      0.01      5.59      0.01         0.01
  C13                         0.01      0.01      5.47      0.01         0.01
  C18                         0.01      0.01      0.82      0.01         0.01
  C23                         0.01      0.01      6.30      0.01         0.01
  C4                          0.01      0.01      6.34      0.01         0.01
  C7                          0.01      0.01      4.75      0.01         0.01
  C8                          0.01      0.08      0.01      0.07         0.01
  C15                         0.01      0.15      0.01      0.22         0.01
  

  Analysis begun on:  Fri Sep  3 16:10:43 2021
  Analysis ended on:  Fri Sep  3 16:10:43 2021
  Total elapsed time: < 1 sec