
  EPA STORM WATER MANAGEMENT MODEL - VERSION 5.1 (Build 5.3.0.dev0)
  --------------------------------------------------------------

  
  *********************************************************
  NOTE: The summary statistics displayed in this report are
  based on results found at every computational time step,  
  not just on results from each reporting time step.
  *********************************************************
  
  ****************
  Analysis Options
  ****************
  Flow Units ............... CMS
  Process Models:
    Rainfall/Runoff ........ YES
    RDII ................... NO
    Snowmelt ............... NO
    Groundwater ............ NO
    Flow Routing ........... YES
    Ponding Allowed ........ YES
    Water Quality .......... NO
  Infiltration Method ...... HORTON
  Flow Routing Method ...... DYNWAVE
  Surcharge Method ......... EXTRAN
  Starting Date ............ 08/28/2015 08:00:00
  Ending Date .............. 08/28/2015 15:50:00
  Antecedent Dry Days ...... 0.0
  Report Time Step ......... 00:01:00
  Wet Time Step ............ 00:01:00
  Dry Time Step ............ 00:01:00
  Routing Time Step ........ 5.00 sec
  Variable Time Step ....... YES
  Maximum Trials ........... 8
  Number of Threads ........ 1
  Head Tolerance ........... 0.001500 m
  
  
  **************************        Volume         Depth
  Runoff Quantity Continuity     hectare-m            mm
  **************************     ---------       -------
  Total Precipitation ......         2.287        12.691
  Evaporation Loss .........         0.000         0.000
  Infiltration Loss ........         0.000         0.000
  Surface Runoff ...........         2.264        12.561
  Final Storage ............         0.024         0.131
  Continuity Error (%) .....        -0.012
  
  
  **************************        Volume        Volume
  Flow Routing Continuity        hectare-m      10^6 ltr
  **************************     ---------     ---------
  Dry Weather Inflow .......         0.396         3.955
  Wet Weather Inflow .......         2.263        22.635
  Groundwater Inflow .......         0.000         0.000
  RDII Inflow ..............         0.000         0.000
  External Inflow ..........         0.000         0.000
  External Outflow .........         0.636         6.363
  Flooding Loss ............         1.184        11.843
  Evaporation Loss .........         0.000         0.000
  Exfiltration Loss ........         0.000         0.000
  Initial Stored Volume ....         0.000         0.000
  Final Stored Volume ......         0.682         6.823
  Continuity Error (%) .....         5.871
  
  
  *************************
  Highest Continuity Errors
  *************************
  Node T5 (15.85%)
  Node T3 (14.78%)
  Node T2 (9.45%)
  Node T4 (6.72%)
  Node J12 (6.52%)
  
  
  ***************************
  Time-Step Critical Elements
  ***************************
  None
  
  
  ********************************
  Highest Flow Instability Indexes
  ********************************
  All links are stable.
  
  
  *************************
  Routing Time Step Summary
  *************************
  Minimum Time Step           :     4.73 sec
  Average Time Step           :     5.00 sec
  Maximum Time Step           :     5.00 sec
  Percent in Steady State     :     0.00
  Average Iterations per Step :     2.32
  Percent Not Converging      :     0.99
  
  
  ***************************
  Subcatchment Runoff Summary
  ***************************
  
  ------------------------------------------------------------------------------------------------------------------------------
                            Total      Total      Total      Total     Imperv       Perv      Total       Total     Peak  Runoff
                           Precip      Runon       Evap      Infil     Runoff     Runoff     Runoff      Runoff   Runoff   Coeff
  Subcatchment                 mm         mm         mm         mm         mm         mm         mm    10^6 ltr      CMS
  ------------------------------------------------------------------------------------------------------------------------------
  SC01                      12.69       0.00       0.00       0.00      12.61       0.00      12.61        4.16     0.86   0.993
  SC02                      12.69       0.00       0.00       0.00      12.60       0.00      12.60        2.87     0.59   0.993
  SC03                      12.69       0.00       0.00       0.00      12.62       0.00      12.62        2.27     0.49   0.995
  SC04                      12.69       0.00       0.00       0.00      12.50       0.00      12.50        0.86     0.16   0.985
  SC05                      12.69       0.00       0.00       0.00      12.60       0.00      12.60        1.97     0.40   0.993
  SC06                      12.69       0.00       0.00       0.00      12.44       0.00      12.44        4.05     0.71   0.980
  SC07                      12.69       0.00       0.00       0.00      12.50       0.00      12.50        0.59     0.11   0.985
  SC08                      12.69       0.00       0.00       0.00      12.57       0.00      12.57        3.52     0.69   0.991
  SC09                      12.69       0.00       0.00       0.00      12.55       0.00      12.55        0.87     0.17   0.989
  SC010                     12.69       0.00       0.00       0.00      12.58       0.00      12.58        1.48     0.29   0.991
  
  
  ******************
  Node Depth Summary
  ******************
  
  ---------------------------------------------------------------------------------
                                 Average  Maximum  Maximum  Time of Max    Reported
                                   Depth    Depth      HGL   Occurrence   Max Depth
  Node                 Type       Meters   Meters   Meters  days hr:min      Meters
  ---------------------------------------------------------------------------------
  J1                   JUNCTION     0.09     0.22    34.22     0  02:34        0.22
  J3                   JUNCTION     0.14     0.17    18.17     0  03:24        0.17
  CSO7                 JUNCTION     0.27     1.20    35.20     0  02:10        1.20
  J5                   JUNCTION     0.08     0.16    32.16     0  02:37        0.16
  CSO9                 JUNCTION     0.35     2.00    42.00     0  02:23        2.00
  J8                   JUNCTION     0.13     0.30    36.30     0  02:39        0.30
  CSO8                 JUNCTION     0.38     2.00    34.00     0  02:21        2.00
  J10                  JUNCTION     0.12     0.30    29.30     0  02:33        0.30
  J13                  JUNCTION     0.08     0.21    29.21     0  02:34        0.21
  J15                  JUNCTION     0.23     0.41    15.41     0  02:38        0.41
  J16                  JUNCTION     0.08     0.23    30.23     0  02:34        0.23
  CSO10                JUNCTION     0.22     1.00    31.00     0  02:21        1.00
  J12                  JUNCTION     0.69     1.08    27.08     0  03:03        1.08
  J4                   JUNCTION     0.22     0.76    33.76     0  02:10        0.75
  J6                   JUNCTION     0.09     0.12    25.12     0  03:30        0.12
  J2                   JUNCTION     0.07     0.08    25.08     0  03:17        0.08
  J19                  JUNCTION     0.15     0.17     8.17     0  01:54        0.17
  J9                   JUNCTION     0.13     0.16    29.16     0  03:34        0.16
  J14                  JUNCTION     0.16     0.19    20.19     0  06:15        0.19
  J17                  JUNCTION     0.12     0.15    20.15     0  03:16        0.15
  J7                   JUNCTION     0.10     0.23    39.23     0  02:58        0.23
  J11                  JUNCTION     0.12     0.30    31.30     0  02:58        0.30
  J18                  JUNCTION     0.07     0.16    29.16     0  02:58        0.16
  Out_to_WWTP          OUTFALL      0.15     0.17     6.17     0  01:53        0.17
  T5                   STORAGE      3.70     5.00    32.00     0  02:26        5.00
  T4                   STORAGE      2.64     5.00    32.00     0  03:15        5.00
  T6                   STORAGE      3.02     5.00    36.00     0  02:21        5.00
  T3                   STORAGE      3.68     5.00    27.00     0  02:57        5.00
  T2                   STORAGE      2.61     5.00    26.00     0  02:58        5.00
  T1                   STORAGE      4.05     5.00    15.00     0  01:52        5.00
  
  
  *******************
  Node Inflow Summary
  *******************
  
  -------------------------------------------------------------------------------------------------
                                  Maximum  Maximum                  Lateral       Total        Flow
                                  Lateral    Total  Time of Max      Inflow      Inflow     Balance
                                   Inflow   Inflow   Occurrence      Volume      Volume       Error
  Node                 Type           CMS      CMS  days hr:min    10^6 ltr    10^6 ltr     Percent
  -------------------------------------------------------------------------------------------------
  J1                   JUNCTION     0.423    0.423     0  02:34        2.53        2.53      -0.015
  J3                   JUNCTION     0.000    0.309     0  03:31           0        6.54       0.756
  CSO7                 JUNCTION     0.119    0.119     0  02:37       0.884       0.884       0.061
  J5                   JUNCTION     0.161    0.233     0  02:37        0.99        1.78       0.036
  CSO9                 JUNCTION     0.172    0.172     0  02:36        1.06        1.06       0.042
  J8                   JUNCTION     0.745    0.872     0  02:38        4.99        5.99       0.032
  CSO8                 JUNCTION     0.702    0.702     0  02:35        3.81        3.81       0.004
  J10                  JUNCTION     0.509    0.995     0  02:32        2.66         6.2      -0.062
  J13                  JUNCTION     0.605    0.605     0  02:34        3.33        3.33      -0.244
  J15                  JUNCTION     0.000    1.470     0  02:35           0        15.3       0.774
  J16                  JUNCTION     0.883    0.883     0  02:34        4.71        4.71      -0.053
  CSO10                JUNCTION     0.297    0.297     0  02:35        1.62        1.62       0.013
  J12                  JUNCTION     0.000    1.167     0  02:33           0        9.71       6.976
  J4                   JUNCTION     0.000    0.072     0  02:37           0       0.793       0.426
  J6                   JUNCTION     0.000    0.080     0  03:15           0        1.49       0.369
  J2                   JUNCTION     0.000    0.039     0  02:26           0       0.891       0.592
  J19                  JUNCTION     0.000    0.271     0  01:52           0        6.38       0.198
  J9                   JUNCTION     0.000    0.175     0  02:21           0        3.53       0.527
  J14                  JUNCTION     0.000    0.190     0  02:57           0        4.18       0.239
  J17                  JUNCTION     0.000    0.140     0  02:58           0         2.6       0.443
  J7                   JUNCTION     0.000    0.127     0  02:58           0        1.01       0.316
  J11                  JUNCTION     0.000    0.486     0  02:58           0        3.55       0.197
  J18                  JUNCTION     0.000    0.202     0  02:58           0         1.5       0.011
  Out_to_WWTP          OUTFALL      0.000    0.271     0  01:54           0        6.36       0.000
  T5                   STORAGE      0.000    0.423     0  02:34           0        2.53      18.839
  T4                   STORAGE      0.000    0.233     0  02:37           0        1.78       7.204
  T6                   STORAGE      0.000    0.871     0  02:39           0        5.99       4.770
  T3                   STORAGE      0.000    1.426     0  03:05           0        9.08      17.341
  T2                   STORAGE      0.000    0.604     0  02:34           0        3.34      10.441
  T1                   STORAGE      0.000    1.456     0  02:38           0        15.2       5.783
  
  
  **********************
  Node Surcharge Summary
  **********************
  
  Surcharging occurs when water rises above the top of the highest conduit.
  ---------------------------------------------------------------------
                                               Max. Height   Min. Depth
                                   Hours       Above Crown    Below Rim
  Node                 Type      Surcharged         Meters       Meters
  ---------------------------------------------------------------------
  CSO7                 JUNCTION        1.86          0.945        0.000
  CSO9                 JUNCTION        1.88          1.682        0.000
  CSO8                 JUNCTION        1.59          1.547        0.000
  CSO10                JUNCTION        0.94          0.560        0.000
  J4                   JUNCTION        1.77          0.460        1.240
  
  
  *********************
  Node Flooding Summary
  *********************
  
  Flooding refers to all water that overflows a node, whether it ponds or not.
  --------------------------------------------------------------------------
                                                             Total   Maximum
                                 Maximum   Time of Max       Flood    Ponded
                        Hours       Rate    Occurrence      Volume     Depth
  Node                 Flooded       CMS   days hr:min    10^6 ltr    Meters
  --------------------------------------------------------------------------
  CSO7                    0.94     0.047      0  02:37       0.090     0.000
  CSO9                    0.58     0.045      0  02:36       0.054     0.000
  CSO8                    0.62     0.217      0  02:35       0.265     0.000
  CSO10                   0.63     0.095      0  02:35       0.118     0.000
  T5                      1.48     0.383      0  02:34       0.835     0.000
  T4                      0.25     0.044      0  03:15       0.020     0.000
  T6                      1.47     0.696      0  02:39       2.016     0.000
  T3                      1.63     1.236      0  03:05       1.050     0.000
  T2                      0.30     0.254      0  02:58       0.124     0.000
  T1                      5.96     1.185      0  02:38       7.271     0.000
  
  
  **********************
  Storage Volume Summary
  **********************
  
  --------------------------------------------------------------------------------------------------
                         Average     Avg  Evap Exfil       Maximum     Max    Time of Max    Maximum
                          Volume    Pcnt  Pcnt  Pcnt        Volume    Pcnt     Occurrence    Outflow
  Storage Unit           1000 m3    Full  Loss  Loss       1000 m3    Full    days hr:min        CMS
  --------------------------------------------------------------------------------------------------
  T5                       0.370      74     0     0         0.500     100       0  02:26      0.039
  T4                       0.264      53     0     0         0.500     100       0  03:15      0.080
  T6                       0.363      60     0     0         0.600     100       0  02:21      0.175
  T3                       1.911      74     0     0         2.600     100       0  02:57      0.190
  T2                       0.522      52     0     0         1.000     100       0  02:58      0.140
  T1                       0.567      81     0     0         0.700     100       0  01:52      0.271
  
  
  ***********************
  Outfall Loading Summary
  ***********************
  
  -----------------------------------------------------------
                         Flow       Avg       Max       Total
                         Freq      Flow      Flow      Volume
  Outfall Node           Pcnt       CMS       CMS    10^6 ltr
  -----------------------------------------------------------
  Out_to_WWTP           99.01     0.228     0.271       6.363
  -----------------------------------------------------------
  System                99.01     0.228     0.271       6.363
  
  
  ********************
  Link Flow Summary
  ********************
  
  -----------------------------------------------------------------------------
                                 Maximum  Time of Max   Maximum    Max/    Max/
                                  |Flow|   Occurrence   |Veloc|    Full    Full
  Link                 Type          CMS  days hr:min     m/sec    Flow   Depth
  -----------------------------------------------------------------------------
  C1                   CONDUIT     0.039     0  03:17      0.91    0.01    0.13
  C6                   CONDUIT     0.072     0  02:37      1.29    1.14    0.77
  C2                   CONDUIT     0.080     0  03:30      1.48    0.09    0.25
  C9                   CONDUIT     0.127     0  02:58      1.27    0.43    0.53
  C16                  CONDUIT     0.489     0  02:29      1.79    0.05    0.15
  C3                   CONDUIT     0.190     0  02:59      2.05    0.07    0.18
  C19                  CONDUIT     0.140     0  03:16      1.24    0.05    0.27
  C11                  CONDUIT     0.309     0  03:24      1.85    0.02    0.14
  C20                  CONDUIT     0.883     0  02:34      3.10    0.03    0.16
  C22                  CONDUIT     0.202     0  02:58      1.53    0.09    0.36
  C12                  CONDUIT     0.175     0  03:34      0.82    0.01    0.31
  C17                  CONDUIT     0.992     0  02:33      2.99    0.05    0.34
  C10                  CONDUIT     0.871     0  02:39      1.66    0.09    0.60
  C13                  CONDUIT     1.426     0  03:05      2.16    0.08    0.77
  C18                  CONDUIT     0.604     0  02:34      2.12    0.02    0.55
  C23                  CONDUIT     1.456     0  02:38      1.46    0.16    0.64
  C4                   CONDUIT     0.423     0  02:34      1.98    0.10    0.61
  C7                   CONDUIT     0.233     0  02:37      1.43    0.06    0.58
  C14                  CONDUIT     0.271     0  01:54      2.08    0.02    0.09
  C5                   CONDUIT     0.072     0  02:37      1.40    1.22    1.00
  C8                   CONDUIT     0.127     0  02:58      1.75    1.60    0.86
  C15                  CONDUIT     0.486     0  02:58      3.42    1.55    0.83
  C21                  CONDUIT     0.202     0  02:58      1.83    1.16    0.69
  V4                   ORIFICE     0.080     0  03:15                      1.00
  V5                   ORIFICE     0.039     0  02:26                      1.00
  V1                   ORIFICE     0.271     0  01:52                      1.00
  V6                   ORIFICE     0.175     0  02:21                      1.00
  V3                   ORIFICE     0.190     0  02:57                      1.00
  V2                   ORIFICE     0.140     0  02:58                      1.00
  
  
  ***************************
  Flow Classification Summary
  ***************************
  
  -------------------------------------------------------------------------------------
                      Adjusted    ---------- Fraction of Time in Flow Class ---------- 
                       /Actual         Up    Down  Sub   Sup   Up    Down  Norm  Inlet 
  Conduit               Length    Dry  Dry   Dry   Crit  Crit  Crit  Crit  Ltd   Ctrl  
  -------------------------------------------------------------------------------------
  C1                      1.00   0.00  0.00  0.00  0.92  0.08  0.00  0.00  0.95  0.00
  C6                      1.00   0.00  0.00  0.00  0.26  0.74  0.00  0.00  0.00  0.00
  C2                      1.00   0.00  0.00  0.00  0.01  0.99  0.00  0.00  0.94  0.00
  C9                      1.00   0.00  0.00  0.00  0.98  0.02  0.00  0.00  1.00  0.00
  C16                     1.00   0.00  0.00  0.00  0.54  0.46  0.00  0.00  0.44  0.00
  C3                      1.00   0.00  0.00  0.00  0.05  0.94  0.00  0.00  0.07  0.00
  C19                     1.00   0.00  0.00  0.00  0.61  0.39  0.00  0.00  1.00  0.00
  C11                     1.00   0.00  0.00  0.00  0.32  0.68  0.00  0.00  1.00  0.00
  C20                     1.00   0.00  0.00  0.00  0.63  0.37  0.00  0.00  0.98  0.00
  C22                     1.00   0.00  0.00  0.00  0.82  0.18  0.00  0.00  1.00  0.00
  C12                     1.00   0.00  0.00  0.00  0.94  0.05  0.00  0.00  1.00  0.00
  C17                     1.00   0.00  0.00  0.00  0.65  0.35  0.00  0.00  0.94  0.00
  C10                     1.00   0.00  0.00  0.00  0.93  0.07  0.00  0.00  0.97  0.00
  C13                     1.00   0.00  0.00  0.00  0.83  0.16  0.00  0.00  0.23  0.00
  C18                     1.00   0.00  0.00  0.00  0.84  0.16  0.00  0.00  0.97  0.00
  C23                     1.00   0.00  0.00  0.00  0.89  0.11  0.00  0.00  0.94  0.00
  C4                      1.00   0.00  0.00  0.00  0.96  0.04  0.00  0.00  0.98  0.00
  C7                      1.00   0.00  0.00  0.00  0.89  0.11  0.00  0.00  0.96  0.00
  C14                     1.00   0.00  0.00  0.00  0.00  0.99  0.00  0.00  0.00  0.00
  C5                      1.00   0.00  0.00  0.00  0.94  0.06  0.00  0.00  0.71  0.00
  C8                      1.00   0.00  0.00  0.00  0.26  0.74  0.00  0.00  0.00  0.00
  C15                     1.00   0.00  0.00  0.00  0.00  1.00  0.00  0.00  0.00  0.00
  C21                     1.00   0.00  0.00  0.00  0.01  0.99  0.00  0.00  0.00  0.00
  
  
  *************************
  Conduit Surcharge Summary
  *************************
  
  ----------------------------------------------------------------------------
                                                           Hours        Hours 
                         --------- Hours Full --------   Above Full   Capacity
  Conduit                Both Ends  Upstream  Dnstream   Normal Flow   Limited
  ----------------------------------------------------------------------------
  C6                          0.01      1.77      0.01      1.16         0.01
  C10                         0.01      0.01      6.23      0.01         0.01
  C13                         0.01      0.01      5.92      0.01         0.01
  C18                         0.01      0.01      5.01      0.01         0.01
  C23                         0.01      0.01      6.45      0.01         0.01
  C4                          0.01      0.01      6.49      0.01         0.01
  C7                          0.01      0.01      6.20      0.01         0.01
  C5                          1.84      1.86      1.94      1.74         1.65
  C8                          0.01      1.88      0.01      1.90         0.01
  C15                         0.01      1.59      0.01      1.79         0.01
  C21                         0.01      0.94      0.01      0.93         0.01
  

  Analysis begun on:  Fri Sep  3 16:11:41 2021
  Analysis ended on:  Fri Sep  3 16:11:41 2021
  Total elapsed time: < 1 sec