
  EPA STORM WATER MANAGEMENT MODEL - VERSION 5.1 (Build 5.3.0.dev0)
  --------------------------------------------------------------

  
  *********************************************************
  NOTE: The summary statistics displayed in this report are
  based on results found at every computational time step,  
  not just on results from each reporting time step.
  *********************************************************
  
  ****************
  Analysis Options
  ****************
  Flow Units ............... CMS
  Process Models:
    Rainfall/Runoff ........ YES
    RDII ................... NO
    Snowmelt ............... NO
    Groundwater ............ NO
    Flow Routing ........... YES
    Ponding Allowed ........ YES
    Water Quality .......... NO
  Infiltration Method ...... HORTON
  Flow Routing Method ...... DYNWAVE
  Surcharge Method ......... EXTRAN
  Starting Date ............ 08/28/2015 08:00:00
  Ending Date .............. 08/28/2015 15:50:00
  Antecedent Dry Days ...... 0.0
  Report Time Step ......... 00:01:00
  Wet Time Step ............ 00:01:00
  Dry Time Step ............ 00:01:00
  Routing Time Step ........ 5.00 sec
  Variable Time Step ....... YES
  Maximum Trials ........... 8
  Number of Threads ........ 1
  Head Tolerance ........... 0.001500 m
  
  
  **************************        Volume         Depth
  Runoff Quantity Continuity     hectare-m            mm
  **************************     ---------       -------
  Total Precipitation ......         1.937        10.747
  Evaporation Loss .........         0.000         0.000
  Infiltration Loss ........         0.000         0.000
  Surface Runoff ...........         1.913        10.615
  Final Storage ............         0.024         0.133
  Continuity Error (%) .....        -0.007
  
  
  **************************        Volume        Volume
  Flow Routing Continuity        hectare-m      10^6 ltr
  **************************     ---------     ---------
  Dry Weather Inflow .......         0.396         3.955
  Wet Weather Inflow .......         1.913        19.128
  Groundwater Inflow .......         0.000         0.000
  RDII Inflow ..............         0.000         0.000
  External Inflow ..........         0.000         0.000
  External Outflow .........         0.604         6.041
  Flooding Loss ............         0.874         8.739
  Evaporation Loss .........         0.000         0.000
  Exfiltration Loss ........         0.000         0.000
  Initial Stored Volume ....         0.000         0.000
  Final Stored Volume ......         0.676         6.756
  Continuity Error (%) .....         6.706
  
  
  *************************
  Highest Continuity Errors
  *************************
  Node T5 (17.95%)
  Node T3 (16.83%)
  Node T2 (9.66%)
  Node J12 (7.49%)
  Node T4 (6.67%)
  
  
  ***************************
  Time-Step Critical Elements
  ***************************
  None
  
  
  ********************************
  Highest Flow Instability Indexes
  ********************************
  All links are stable.
  
  
  *************************
  Routing Time Step Summary
  *************************
  Minimum Time Step           :     4.50 sec
  Average Time Step           :     5.00 sec
  Maximum Time Step           :     5.00 sec
  Percent in Steady State     :     0.00
  Average Iterations per Step :     2.18
  Percent Not Converging      :     0.62
  
  
  ***************************
  Subcatchment Runoff Summary
  ***************************
  
  ------------------------------------------------------------------------------------------------------------------------------
                            Total      Total      Total      Total     Imperv       Perv      Total       Total     Peak  Runoff
                           Precip      Runon       Evap      Infil     Runoff     Runoff     Runoff      Runoff   Runoff   Coeff
  Subcatchment                 mm         mm         mm         mm         mm         mm         mm    10^6 ltr      CMS
  ------------------------------------------------------------------------------------------------------------------------------
  SC01                      10.75       0.00       0.00       0.00      10.66       0.00      10.66        3.52     0.94   0.992
  SC02                      10.75       0.00       0.00       0.00      10.66       0.00      10.66        2.42     0.64   0.991
  SC03                      10.75       0.00       0.00       0.00      10.68       0.00      10.68        1.92     0.54   0.994
  SC04                      10.75       0.00       0.00       0.00      10.55       0.00      10.55        0.73     0.17   0.982
  SC05                      10.75       0.00       0.00       0.00      10.65       0.00      10.65        1.66     0.44   0.991
  SC06                      10.75       0.00       0.00       0.00      10.49       0.00      10.49        3.42     0.75   0.976
  SC07                      10.75       0.00       0.00       0.00      10.55       0.00      10.55        0.50     0.12   0.982
  SC08                      10.75       0.00       0.00       0.00      10.63       0.00      10.63        2.98     0.75   0.989
  SC09                      10.75       0.00       0.00       0.00      10.60       0.00      10.60        0.73     0.18   0.987
  SC010                     10.75       0.00       0.00       0.00      10.63       0.00      10.63        1.25     0.32   0.989
  
  
  ******************
  Node Depth Summary
  ******************
  
  ---------------------------------------------------------------------------------
                                 Average  Maximum  Maximum  Time of Max    Reported
                                   Depth    Depth      HGL   Occurrence   Max Depth
  Node                 Type       Meters   Meters   Meters  days hr:min      Meters
  ---------------------------------------------------------------------------------
  J1                   JUNCTION     0.08     0.22    34.22     0  02:43        0.22
  J3                   JUNCTION     0.14     0.17    18.17     0  03:56        0.17
  CSO7                 JUNCTION     0.22     1.20    35.20     0  02:21        1.20
  J5                   JUNCTION     0.07     0.17    32.17     0  02:46        0.17
  CSO9                 JUNCTION     0.29     2.00    42.00     0  02:29        2.00
  J8                   JUNCTION     0.12     0.31    36.31     0  02:48        0.31
  CSO8                 JUNCTION     0.31     2.00    34.00     0  02:27        2.00
  J10                  JUNCTION     0.11     0.31    29.31     0  02:42        0.31
  J13                  JUNCTION     0.07     0.21    29.21     0  02:43        0.21
  J15                  JUNCTION     0.22     0.41    15.41     0  02:46        0.41
  J16                  JUNCTION     0.08     0.24    30.24     0  02:42        0.24
  CSO10                JUNCTION     0.19     1.00    31.00     0  02:27        1.00
  J12                  JUNCTION     0.64     1.00    27.00     0  04:43        1.00
  J4                   JUNCTION     0.19     1.22    34.22     0  02:21        0.76
  J6                   JUNCTION     0.09     0.12    25.12     0  03:38        0.12
  J2                   JUNCTION     0.07     0.08    25.08     0  03:35        0.08
  J19                  JUNCTION     0.15     0.17     8.17     0  02:25        0.17
  J9                   JUNCTION     0.13     0.16    29.16     0  03:52        0.16
  J14                  JUNCTION     0.15     0.19    20.19     0  06:15        0.19
  J17                  JUNCTION     0.11     0.15    20.15     0  03:21        0.15
  J7                   JUNCTION     0.09     0.23    39.23     0  03:03        0.23
  J11                  JUNCTION     0.11     0.30    31.30     0  03:03        0.30
  J18                  JUNCTION     0.06     0.16    29.16     0  03:03        0.16
  Out_to_WWTP          OUTFALL      0.14     0.17     6.17     0  02:24        0.17
  T5                   STORAGE      3.44     5.00    32.00     0  02:44        5.00
  T4                   STORAGE      2.14     4.32    31.32     0  03:36        4.32
  T6                   STORAGE      2.75     5.00    36.00     0  02:43        5.00
  T3                   STORAGE      3.40     5.00    27.00     0  04:02        5.00
  T2                   STORAGE      2.21     4.59    25.59     0  03:20        4.59
  T1                   STORAGE      3.77     5.00    15.00     0  02:24        5.00
  
  
  *******************
  Node Inflow Summary
  *******************
  
  -------------------------------------------------------------------------------------------------
                                  Maximum  Maximum                  Lateral       Total        Flow
                                  Lateral    Total  Time of Max      Inflow      Inflow     Balance
                                   Inflow   Inflow   Occurrence      Volume      Volume       Error
  Node                 Type           CMS      CMS  days hr:min    10^6 ltr    10^6 ltr     Percent
  -------------------------------------------------------------------------------------------------
  J1                   JUNCTION     0.457    0.457     0  02:42        2.22        2.22       0.016
  J3                   JUNCTION     0.000    0.302     0  03:46           0        6.08       0.802
  CSO7                 JUNCTION     0.126    0.126     0  02:46       0.792       0.792       0.057
  J5                   JUNCTION     0.173    0.244     0  02:46       0.855        1.55       0.074
  CSO9                 JUNCTION     0.185    0.185     0  02:44       0.928       0.928       0.050
  J8                   JUNCTION     0.788    0.915     0  02:47        4.36        5.21       0.074
  CSO8                 JUNCTION     0.760    0.760     0  02:43        3.27        3.27       0.014
  J10                  JUNCTION     0.551    1.037     0  02:41        2.31        5.21      -0.025
  J13                  JUNCTION     0.655    0.655     0  02:42        2.89        2.89      -0.185
  J15                  JUNCTION     0.000    1.496     0  02:43           0        13.7       0.859
  J16                  JUNCTION     0.957    0.957     0  02:42        4.07        4.07      -0.031
  CSO10                JUNCTION     0.322    0.322     0  02:43        1.39        1.39       0.025
  J12                  JUNCTION     0.000    1.201     0  02:43           0         8.6       8.101
  J4                   JUNCTION     0.000    0.072     0  02:46           0       0.696       0.481
  J6                   JUNCTION     0.000    0.074     0  03:36           0        1.31       0.394
  J2                   JUNCTION     0.000    0.039     0  02:44           0       0.845       0.627
  J19                  JUNCTION     0.000    0.271     0  02:24           0        6.05       0.209
  J9                   JUNCTION     0.000    0.175     0  02:43           0        3.31       0.554
  J14                  JUNCTION     0.000    0.190     0  04:02           0        3.94       0.255
  J17                  JUNCTION     0.000    0.134     0  03:20           0        2.34       0.466
  J7                   JUNCTION     0.000    0.127     0  03:03           0       0.853       0.365
  J11                  JUNCTION     0.000    0.486     0  03:03           0        2.91       0.218
  J18                  JUNCTION     0.000    0.202     0  03:03           0        1.23       0.035
  Out_to_WWTP          OUTFALL      0.000    0.271     0  02:26           0        6.04       0.000
  T5                   STORAGE      0.000    0.457     0  02:43           0        2.22      21.879
  T4                   STORAGE      0.000    0.244     0  02:46           0        1.55       7.144
  T6                   STORAGE      0.000    0.915     0  02:48           0         5.2       5.579
  T3                   STORAGE      0.000    1.193     0  02:45           0        7.95      20.236
  T2                   STORAGE      0.000    0.655     0  02:43           0         2.9      10.690
  T1                   STORAGE      0.000    1.481     0  02:46           0        13.5       6.519
  
  
  **********************
  Node Surcharge Summary
  **********************
  
  Surcharging occurs when water rises above the top of the highest conduit.
  ---------------------------------------------------------------------
                                               Max. Height   Min. Depth
                                   Hours       Above Crown    Below Rim
  Node                 Type      Surcharged         Meters       Meters
  ---------------------------------------------------------------------
  CSO7                 JUNCTION        1.00          0.945        0.000
  CSO9                 JUNCTION        1.02          1.682        0.000
  CSO8                 JUNCTION        0.96          1.547        0.000
  CSO10                JUNCTION        0.71          0.560        0.000
  J4                   JUNCTION        0.97          0.917        0.783
  
  
  *********************
  Node Flooding Summary
  *********************
  
  Flooding refers to all water that overflows a node, whether it ponds or not.
  --------------------------------------------------------------------------
                                                             Total   Maximum
                                 Maximum   Time of Max       Flood    Ponded
                        Hours       Rate    Occurrence      Volume     Depth
  Node                 Flooded       CMS   days hr:min    10^6 ltr    Meters
  --------------------------------------------------------------------------
  CSO7                    0.82     0.054      0  02:46       0.095     0.000
  CSO9                    0.56     0.058      0  02:44       0.074     0.000
  CSO8                    0.59     0.274      0  02:43       0.355     0.000
  CSO10                   0.61     0.119      0  02:43       0.156     0.000
  T5                      1.23     0.416      0  02:44       0.577     0.000
  T6                      1.16     0.740      0  02:48       1.441     0.000
  T3                      0.56     0.252      0  04:10       0.075     0.000
  T1                      5.43     1.211      0  02:46       5.965     0.000
  
  
  **********************
  Storage Volume Summary
  **********************
  
  --------------------------------------------------------------------------------------------------
                         Average     Avg  Evap Exfil       Maximum     Max    Time of Max    Maximum
                          Volume    Pcnt  Pcnt  Pcnt        Volume    Pcnt     Occurrence    Outflow
  Storage Unit           1000 m3    Full  Loss  Loss       1000 m3    Full    days hr:min        CMS
  --------------------------------------------------------------------------------------------------
  T5                       0.344      69     0     0         0.500     100       0  02:44      0.039
  T4                       0.214      43     0     0         0.432      86       0  03:36      0.074
  T6                       0.330      55     0     0         0.600     100       0  02:43      0.175
  T3                       1.768      68     0     0         2.600     100       0  04:02      0.355
  T2                       0.441      44     0     0         0.918      92       0  03:20      0.134
  T1                       0.528      75     0     0         0.700     100       0  02:24      0.271
  
  
  ***********************
  Outfall Loading Summary
  ***********************
  
  -----------------------------------------------------------
                         Flow       Avg       Max       Total
                         Freq      Flow      Flow      Volume
  Outfall Node           Pcnt       CMS       CMS    10^6 ltr
  -----------------------------------------------------------
  Out_to_WWTP           99.01     0.216     0.271       6.041
  -----------------------------------------------------------
  System                99.01     0.216     0.271       6.041
  
  
  ********************
  Link Flow Summary
  ********************
  
  -----------------------------------------------------------------------------
                                 Maximum  Time of Max   Maximum    Max/    Max/
                                  |Flow|   Occurrence   |Veloc|    Full    Full
  Link                 Type          CMS  days hr:min     m/sec    Flow   Depth
  -----------------------------------------------------------------------------
  C1                   CONDUIT     0.039     0  03:35      0.91    0.01    0.12
  C6                   CONDUIT     0.072     0  02:46      1.29    1.14    0.78
  C2                   CONDUIT     0.074     0  03:38      1.42    0.08    0.24
  C9                   CONDUIT     0.127     0  03:03      1.28    0.43    0.54
  C16                  CONDUIT     0.489     0  02:36      1.79    0.05    0.15
  C3                   CONDUIT     0.190     0  04:12      2.06    0.07    0.18
  C19                  CONDUIT     0.134     0  03:21      1.22    0.05    0.27
  C11                  CONDUIT     0.302     0  03:56      1.85    0.01    0.14
  C20                  CONDUIT     0.956     0  02:42      2.95    0.03    0.16
  C22                  CONDUIT     0.202     0  03:03      1.47    0.09    0.36
  C12                  CONDUIT     0.175     0  03:47      0.77    0.01    0.29
  C17                  CONDUIT     1.033     0  02:42      3.03    0.05    0.27
  C10                  CONDUIT     0.915     0  02:48      1.66    0.09    0.60
  C13                  CONDUIT     1.193     0  02:45      1.53    0.07    0.75
  C18                  CONDUIT     0.655     0  02:43      1.72    0.02    0.55
  C23                  CONDUIT     1.481     0  02:46      1.26    0.16    0.64
  C4                   CONDUIT     0.457     0  02:43      1.98    0.11    0.61
  C7                   CONDUIT     0.244     0  02:46      1.43    0.06    0.58
  C14                  CONDUIT     0.271     0  02:26      2.08    0.02    0.09
  C5                   CONDUIT     0.072     0  02:46      1.40    1.23    1.00
  C8                   CONDUIT     0.127     0  03:03      1.75    1.60    0.86
  C15                  CONDUIT     0.486     0  03:03      3.42    1.55    0.83
  C21                  CONDUIT     0.202     0  03:03      1.83    1.16    0.69
  V4                   ORIFICE     0.074     0  03:36                      1.00
  V5                   ORIFICE     0.039     0  02:44                      1.00
  V1                   ORIFICE     0.271     0  02:24                      1.00
  V6                   ORIFICE     0.175     0  02:43                      1.00
  V3                   ORIFICE     0.190     0  04:02                      1.00
  V2                   ORIFICE     0.134     0  03:20                      1.00
  
  
  ***************************
  Flow Classification Summary
  ***************************
  
  -------------------------------------------------------------------------------------
                      Adjusted    ---------- Fraction of Time in Flow Class ---------- 
                       /Actual         Up    Down  Sub   Sup   Up    Down  Norm  Inlet 
  Conduit               Length    Dry  Dry   Dry   Crit  Crit  Crit  Crit  Ltd   Ctrl  
  -------------------------------------------------------------------------------------
  C1                      1.00   0.00  0.00  0.00  0.92  0.08  0.00  0.00  0.95  0.00
  C6                      1.00   0.00  0.00  0.00  0.15  0.85  0.00  0.00  0.00  0.00
  C2                      1.00   0.00  0.00  0.00  0.01  0.99  0.00  0.00  0.94  0.00
  C9                      1.00   0.00  0.00  0.00  1.00  0.00  0.00  0.00  1.00  0.00
  C16                     1.00   0.00  0.00  0.00  0.55  0.45  0.00  0.00  0.42  0.00
  C3                      1.00   0.00  0.00  0.00  0.05  0.94  0.00  0.00  0.07  0.00
  C19                     1.00   0.00  0.00  0.00  0.66  0.34  0.00  0.00  1.00  0.00
  C11                     1.00   0.00  0.00  0.00  0.31  0.69  0.00  0.00  1.00  0.00
  C20                     1.00   0.00  0.00  0.00  0.63  0.37  0.00  0.00  0.98  0.00
  C22                     1.00   0.00  0.00  0.00  0.86  0.14  0.00  0.00  1.00  0.00
  C12                     1.00   0.00  0.00  0.00  0.93  0.07  0.00  0.00  1.00  0.00
  C17                     1.00   0.00  0.00  0.00  0.61  0.39  0.00  0.00  0.97  0.00
  C10                     1.00   0.00  0.00  0.00  0.94  0.06  0.00  0.00  0.97  0.00
  C13                     1.00   0.00  0.00  0.00  0.84  0.16  0.00  0.00  0.29  0.00
  C18                     1.00   0.00  0.00  0.00  0.82  0.18  0.00  0.00  0.97  0.00
  C23                     1.00   0.00  0.00  0.00  0.90  0.10  0.00  0.00  0.94  0.00
  C4                      1.00   0.00  0.00  0.00  0.96  0.04  0.00  0.00  0.98  0.00
  C7                      1.00   0.00  0.00  0.00  0.91  0.09  0.00  0.00  0.96  0.00
  C14                     1.00   0.00  0.00  0.00  0.00  0.99  0.00  0.00  0.00  0.00
  C5                      1.00   0.00  0.00  0.00  0.90  0.10  0.00  0.00  0.85  0.00
  C8                      1.00   0.00  0.00  0.00  0.17  0.83  0.00  0.00  0.00  0.00
  C15                     1.00   0.00  0.00  0.00  0.00  1.00  0.00  0.00  0.00  0.00
  C21                     1.00   0.00  0.00  0.00  0.00  1.00  0.00  0.00  0.00  0.00
  
  
  *************************
  Conduit Surcharge Summary
  *************************
  
  ----------------------------------------------------------------------------
                                                           Hours        Hours 
                         --------- Hours Full --------   Above Full   Capacity
  Conduit                Both Ends  Upstream  Dnstream   Normal Flow   Limited
  ----------------------------------------------------------------------------
  C6                          0.01      0.97      0.01      0.87         0.01
  C10                         0.01      0.01      5.71      0.01         0.01
  C13                         0.01      0.01      5.39      0.01         0.01
  C18                         0.01      0.01      4.23      0.01         0.01
  C23                         0.01      0.01      6.02      0.01         0.01
  C4                          0.01      0.01      6.05      0.01         0.01
  C7                          0.01      0.01      5.62      0.01         0.01
  C5                          1.00      1.00      1.11      1.07         0.97
  C8                          0.01      1.02      0.01      1.05         0.01
  C15                         0.01      0.96      0.01      1.04         0.01
  C21                         0.01      0.71      0.01      0.72         0.01
  

  Analysis begun on:  Fri Sep  3 15:48:32 2021
  Analysis ended on:  Fri Sep  3 15:48:32 2021
  Total elapsed time: < 1 sec