
  EPA STORM WATER MANAGEMENT MODEL - VERSION 5.1 (Build 5.3.0.dev0)
  --------------------------------------------------------------

  
  *********************************************************
  NOTE: The summary statistics displayed in this report are
  based on results found at every computational time step,  
  not just on results from each reporting time step.
  *********************************************************
  
  ****************
  Analysis Options
  ****************
  Flow Units ............... CMS
  Process Models:
    Rainfall/Runoff ........ YES
    RDII ................... NO
    Snowmelt ............... NO
    Groundwater ............ NO
    Flow Routing ........... YES
    Ponding Allowed ........ YES
    Water Quality .......... NO
  Infiltration Method ...... HORTON
  Flow Routing Method ...... DYNWAVE
  Surcharge Method ......... EXTRAN
  Starting Date ............ 08/28/2015 08:00:00
  Ending Date .............. 08/28/2015 15:50:00
  Antecedent Dry Days ...... 0.0
  Report Time Step ......... 00:01:00
  Wet Time Step ............ 00:01:00
  Dry Time Step ............ 00:01:00
  Routing Time Step ........ 5.00 sec
  Variable Time Step ....... YES
  Maximum Trials ........... 8
  Number of Threads ........ 1
  Head Tolerance ........... 0.001500 m
  
  
  **************************        Volume         Depth
  Runoff Quantity Continuity     hectare-m            mm
  **************************     ---------       -------
  Total Precipitation ......         1.672         9.278
  Evaporation Loss .........         0.000         0.000
  Infiltration Loss ........         0.000         0.000
  Surface Runoff ...........         1.649         9.149
  Final Storage ............         0.023         0.130
  Continuity Error (%) .....        -0.009
  
  
  **************************        Volume        Volume
  Flow Routing Continuity        hectare-m      10^6 ltr
  **************************     ---------     ---------
  Dry Weather Inflow .......         0.396         3.955
  Wet Weather Inflow .......         1.649        16.487
  Groundwater Inflow .......         0.000         0.000
  RDII Inflow ..............         0.000         0.000
  External Inflow ..........         0.000         0.000
  External Outflow .........         0.628         6.276
  Flooding Loss ............         0.633         6.333
  Evaporation Loss .........         0.000         0.000
  Exfiltration Loss ........         0.000         0.000
  Initial Stored Volume ....         0.000         0.000
  Final Stored Volume ......         0.632         6.323
  Continuity Error (%) .....         7.384
  
  
  *************************
  Highest Continuity Errors
  *************************
  Node T5 (20.08%)
  Node T3 (16.86%)
  Node T2 (7.25%)
  Node T1 (6.36%)
  Node J12 (6.14%)
  
  
  ***************************
  Time-Step Critical Elements
  ***************************
  None
  
  
  ********************************
  Highest Flow Instability Indexes
  ********************************
  Link C13 (2)
  
  
  *************************
  Routing Time Step Summary
  *************************
  Minimum Time Step           :     4.50 sec
  Average Time Step           :     5.00 sec
  Maximum Time Step           :     5.00 sec
  Percent in Steady State     :     0.00
  Average Iterations per Step :     2.22
  Percent Not Converging      :     0.87
  
  
  ***************************
  Subcatchment Runoff Summary
  ***************************
  
  ------------------------------------------------------------------------------------------------------------------------------
                            Total      Total      Total      Total     Imperv       Perv      Total       Total     Peak  Runoff
                           Precip      Runon       Evap      Infil     Runoff     Runoff     Runoff      Runoff   Runoff   Coeff
  Subcatchment                 mm         mm         mm         mm         mm         mm         mm    10^6 ltr      CMS
  ------------------------------------------------------------------------------------------------------------------------------
  SC01                       9.28       0.00       0.00       0.00       9.19       0.00       9.19        3.03     0.60   0.991
  SC02                       9.28       0.00       0.00       0.00       9.19       0.00       9.19        2.09     0.40   0.990
  SC03                       9.28       0.00       0.00       0.00       9.21       0.00       9.21        1.66     0.36   0.993
  SC04                       9.28       0.00       0.00       0.00       9.09       0.00       9.09        0.63     0.09   0.979
  SC05                       9.28       0.00       0.00       0.00       9.19       0.00       9.19        1.43     0.27   0.990
  SC06                       9.28       0.00       0.00       0.00       9.03       0.00       9.03        2.94     0.41   0.974
  SC07                       9.28       0.00       0.00       0.00       9.09       0.00       9.09        0.43     0.06   0.979
  SC08                       9.28       0.00       0.00       0.00       9.16       0.00       9.16        2.57     0.44   0.987
  SC09                       9.28       0.00       0.00       0.00       9.14       0.00       9.14        0.63     0.10   0.985
  SC010                      9.28       0.00       0.00       0.00       9.17       0.00       9.17        1.08     0.19   0.988
  
  
  ******************
  Node Depth Summary
  ******************
  
  ---------------------------------------------------------------------------------
                                 Average  Maximum  Maximum  Time of Max    Reported
                                   Depth    Depth      HGL   Occurrence   Max Depth
  Node                 Type       Meters   Meters   Meters  days hr:min      Meters
  ---------------------------------------------------------------------------------
  J1                   JUNCTION     0.08     0.18    34.18     0  01:33        0.18
  J3                   JUNCTION     0.14     0.17    18.17     0  03:48        0.17
  CSO7                 JUNCTION     0.18     1.20    35.20     0  01:37        1.20
  J5                   JUNCTION     0.07     0.14    32.14     0  01:43        0.14
  CSO9                 JUNCTION     0.19     1.25    41.25     0  01:37        1.25
  J8                   JUNCTION     0.12     0.24    36.24     0  03:01        0.24
  CSO8                 JUNCTION     0.23     1.69    33.69     0  01:35        1.69
  J10                  JUNCTION     0.11     0.27    29.27     0  01:35        0.27
  J13                  JUNCTION     0.07     0.17    29.17     0  01:33        0.17
  J15                  JUNCTION     0.22     0.34    15.34     0  03:02        0.34
  J16                  JUNCTION     0.07     0.19    30.19     0  01:32        0.19
  CSO10                JUNCTION     0.15     0.93    30.93     0  01:29        0.86
  J12                  JUNCTION     0.56     0.89    26.89     0  05:17        0.89
  J4                   JUNCTION     0.17     1.19    34.19     0  02:59        0.77
  J6                   JUNCTION     0.09     0.11    25.11     0  03:32        0.11
  J2                   JUNCTION     0.07     0.08    25.08     0  03:34        0.08
  J19                  JUNCTION     0.15     0.17     8.17     0  01:57        0.17
  J9                   JUNCTION     0.13     0.16    29.16     0  03:37        0.16
  J14                  JUNCTION     0.15     0.19    20.19     0  06:05        0.19
  J17                  JUNCTION     0.11     0.14    20.14     0  03:21        0.14
  J7                   JUNCTION     0.09     0.21    39.21     0  01:40        0.21
  J11                  JUNCTION     0.11     0.29    31.29     0  01:37        0.29
  J18                  JUNCTION     0.06     0.16    29.16     0  01:36        0.16
  Out_to_WWTP          OUTFALL      0.15     0.17     6.17     0  01:56        0.17
  T5                   STORAGE      3.63     5.00    32.00     0  02:45        5.00
  T4                   STORAGE      1.97     3.73    30.73     0  03:31        3.73
  T6                   STORAGE      2.92     5.00    36.00     0  02:30        5.00
  T3                   STORAGE      3.48     4.90    26.90     0  05:13        4.90
  T2                   STORAGE      1.85     3.56    24.56     0  03:19        3.56
  T1                   STORAGE      3.98     5.00    15.00     0  01:56        5.00
  
  
  *******************
  Node Inflow Summary
  *******************
  
  -------------------------------------------------------------------------------------------------
                                  Maximum  Maximum                  Lateral       Total        Flow
                                  Lateral    Total  Time of Max      Inflow      Inflow     Balance
                                   Inflow   Inflow   Occurrence      Volume      Volume       Error
  Node                 Type           CMS      CMS  days hr:min    10^6 ltr    10^6 ltr     Percent
  -------------------------------------------------------------------------------------------------
  J1                   JUNCTION     0.291    0.291     0  01:32        1.99        1.99       0.000
  J3                   JUNCTION     0.000    0.293     0  03:46           0        6.19       0.774
  CSO7                 JUNCTION     0.074    0.074     0  03:01       0.722       0.722       0.060
  J5                   JUNCTION     0.095    0.165     0  03:01       0.754        1.47       0.054
  CSO9                 JUNCTION     0.108    0.108     0  01:38       0.827       0.827       0.037
  J8                   JUNCTION     0.451    0.545     0  03:01        3.88         4.7       0.054
  CSO8                 JUNCTION     0.455    0.455     0  01:35        2.86        2.86       0.011
  J10                  JUNCTION     0.373    0.800     0  01:33        2.04        4.89      -0.003
  J13                  JUNCTION     0.415    0.415     0  01:32        2.56        2.56      -0.290
  J15                  JUNCTION     0.000    1.056     0  03:01           0        13.1       0.857
  J16                  JUNCTION     0.613    0.613     0  01:32        3.59        3.59      -0.043
  CSO10                JUNCTION     0.194    0.194     0  01:35        1.22        1.22       0.017
  J12                  JUNCTION     0.000    0.871     0  01:36           0        8.33       6.544
  J4                   JUNCTION     0.000    0.070     0  01:37           0       0.721       0.405
  J6                   JUNCTION     0.000    0.069     0  03:31           0        1.28       0.369
  J2                   JUNCTION     0.000    0.039     0  02:45           0       0.879       0.601
  J19                  JUNCTION     0.000    0.271     0  01:56           0        6.29       0.201
  J9                   JUNCTION     0.000    0.175     0  02:30           0        3.45       0.534
  J14                  JUNCTION     0.000    0.188     0  05:13           0        4.05       0.246
  J17                  JUNCTION     0.000    0.118     0  03:19           0        2.18       0.446
  J7                   JUNCTION     0.000    0.108     0  01:37           0       0.826       0.385
  J11                  JUNCTION     0.000    0.455     0  01:35           0        2.86       0.230
  J18                  JUNCTION     0.000    0.194     0  01:35           0        1.22       0.031
  Out_to_WWTP          OUTFALL      0.000    0.271     0  01:57           0        6.28       0.000
  T5                   STORAGE      0.000    0.291     0  01:33           0        1.99      25.119
  T4                   STORAGE      0.000    0.165     0  01:43           0        1.47       6.123
  T6                   STORAGE      0.000    0.534     0  03:01           0         4.7       5.925
  T3                   STORAGE      0.000    0.864     0  01:39           0        7.81      20.272
  T2                   STORAGE      0.000    0.414     0  01:33           0        2.57       7.817
  T1                   STORAGE      0.000    1.019     0  03:02           0          13       6.793
  
  
  **********************
  Node Surcharge Summary
  **********************
  
  Surcharging occurs when water rises above the top of the highest conduit.
  ---------------------------------------------------------------------
                                               Max. Height   Min. Depth
                                   Hours       Above Crown    Below Rim
  Node                 Type      Surcharged         Meters       Meters
  ---------------------------------------------------------------------
  CSO7                 JUNCTION        0.97          0.945        0.000
  CSO9                 JUNCTION        0.97          0.931        0.751
  CSO8                 JUNCTION        0.85          1.236        0.311
  CSO10                JUNCTION        0.35          0.490        0.070
  J4                   JUNCTION        0.91          0.893        0.807
  
  
  *********************
  Node Flooding Summary
  *********************
  
  Flooding refers to all water that overflows a node, whether it ponds or not.
  --------------------------------------------------------------------------
                                                             Total   Maximum
                                 Maximum   Time of Max       Flood    Ponded
                        Hours       Rate    Occurrence      Volume     Depth
  Node                 Flooded       CMS   days hr:min    10^6 ltr    Meters
  --------------------------------------------------------------------------
  CSO7                    0.22     0.005      0  01:37       0.001     0.000
  T5                      1.15     0.207      0  03:01       0.315     0.000
  T6                      1.20     0.359      0  03:01       0.823     0.000
  T1                      5.90     0.748      0  03:02       5.195     0.000
  
  
  **********************
  Storage Volume Summary
  **********************
  
  --------------------------------------------------------------------------------------------------
                         Average     Avg  Evap Exfil       Maximum     Max    Time of Max    Maximum
                          Volume    Pcnt  Pcnt  Pcnt        Volume    Pcnt     Occurrence    Outflow
  Storage Unit           1000 m3    Full  Loss  Loss       1000 m3    Full    days hr:min        CMS
  --------------------------------------------------------------------------------------------------
  T5                       0.363      73     0     0         0.500     100       0  02:45      0.039
  T4                       0.197      39     0     0         0.373      75       0  03:31      0.069
  T6                       0.350      58     0     0         0.600     100       0  02:30      0.175
  T3                       1.809      70     0     0         2.547      98       0  05:13      0.194
  T2                       0.369      37     0     0         0.711      71       0  03:19      0.118
  T1                       0.558      80     0     0         0.700     100       0  01:56      0.271
  
  
  ***********************
  Outfall Loading Summary
  ***********************
  
  -----------------------------------------------------------
                         Flow       Avg       Max       Total
                         Freq      Flow      Flow      Volume
  Outfall Node           Pcnt       CMS       CMS    10^6 ltr
  -----------------------------------------------------------
  Out_to_WWTP           99.01     0.225     0.271       6.276
  -----------------------------------------------------------
  System                99.01     0.225     0.271       6.276
  
  
  ********************
  Link Flow Summary
  ********************
  
  -----------------------------------------------------------------------------
                                 Maximum  Time of Max   Maximum    Max/    Max/
                                  |Flow|   Occurrence   |Veloc|    Full    Full
  Link                 Type          CMS  days hr:min     m/sec    Flow   Depth
  -----------------------------------------------------------------------------
  C1                   CONDUIT     0.039     0  03:34      0.91    0.01    0.12
  C6                   CONDUIT     0.070     0  01:43      1.29    1.12    0.73
  C2                   CONDUIT     0.069     0  03:32      1.36    0.08    0.23
  C9                   CONDUIT     0.107     0  01:40      1.27    0.37    0.45
  C16                  CONDUIT     0.453     0  01:37      1.71    0.04    0.14
  C3                   CONDUIT     0.188     0  05:14      2.06    0.07    0.18
  C19                  CONDUIT     0.118     0  03:21      1.13    0.04    0.24
  C11                  CONDUIT     0.293     0  03:48      1.85    0.01    0.13
  C20                  CONDUIT     0.613     0  01:32      2.78    0.02    0.13
  C22                  CONDUIT     0.193     0  01:36      1.51    0.09    0.30
  C12                  CONDUIT     0.175     0  03:37      0.99    0.01    0.26
  C17                  CONDUIT     0.797     0  01:35      2.92    0.04    0.24
  C10                  CONDUIT     0.534     0  03:01      1.66    0.05    0.58
  C13                  CONDUIT     0.864     0  01:39      1.66    0.05    0.72
  C18                  CONDUIT     0.414     0  01:33      1.72    0.02    0.54
  C23                  CONDUIT     1.019     0  03:02      1.26    0.11    0.61
  C4                   CONDUIT     0.291     0  01:33      1.98    0.07    0.59
  C7                   CONDUIT     0.165     0  01:43      1.43    0.04    0.57
  C14                  CONDUIT     0.271     0  01:57      2.08    0.02    0.09
  C5                   CONDUIT     0.070     0  01:37      1.37    1.20    1.00
  C8                   CONDUIT     0.108     0  01:37      1.54    1.36    0.83
  C15                  CONDUIT     0.455     0  01:35      3.24    1.45    0.82
  C21                  CONDUIT     0.194     0  01:35      1.77    1.11    0.68
  V4                   ORIFICE     0.069     0  03:31                      1.00
  V5                   ORIFICE     0.039     0  02:45                      1.00
  V1                   ORIFICE     0.271     0  01:56                      1.00
  V6                   ORIFICE     0.175     0  02:30                      1.00
  V3                   ORIFICE     0.188     0  05:13                      1.00
  V2                   ORIFICE     0.118     0  03:19                      1.00
  
  
  ***************************
  Flow Classification Summary
  ***************************
  
  -------------------------------------------------------------------------------------
                      Adjusted    ---------- Fraction of Time in Flow Class ---------- 
                       /Actual         Up    Down  Sub   Sup   Up    Down  Norm  Inlet 
  Conduit               Length    Dry  Dry   Dry   Crit  Crit  Crit  Crit  Ltd   Ctrl  
  -------------------------------------------------------------------------------------
  C1                      1.00   0.00  0.00  0.00  0.92  0.08  0.00  0.00  0.95  0.00
  C6                      1.00   0.00  0.00  0.00  0.17  0.83  0.00  0.00  0.00  0.00
  C2                      1.00   0.00  0.00  0.00  0.02  0.98  0.00  0.00  0.94  0.00
  C9                      1.00   0.00  0.00  0.00  1.00  0.00  0.00  0.00  1.00  0.00
  C16                     1.00   0.00  0.00  0.00  0.55  0.45  0.00  0.00  0.44  0.00
  C3                      1.00   0.00  0.00  0.00  0.05  0.94  0.00  0.00  0.07  0.00
  C19                     1.00   0.00  0.00  0.00  0.88  0.11  0.00  0.00  1.00  0.00
  C11                     1.00   0.00  0.00  0.00  0.24  0.75  0.00  0.00  1.00  0.00
  C20                     1.00   0.00  0.00  0.00  0.63  0.37  0.00  0.00  0.98  0.00
  C22                     1.00   0.00  0.00  0.00  0.87  0.13  0.00  0.00  1.00  0.00
  C12                     1.00   0.00  0.00  0.00  0.94  0.06  0.00  0.00  1.00  0.00
  C17                     1.00   0.00  0.00  0.00  0.61  0.39  0.00  0.00  0.93  0.00
  C10                     1.00   0.00  0.00  0.00  0.94  0.06  0.00  0.00  0.97  0.00
  C13                     1.00   0.00  0.00  0.00  0.83  0.17  0.00  0.00  0.29  0.00
  C18                     1.00   0.00  0.00  0.00  0.83  0.17  0.00  0.00  0.97  0.00
  C23                     1.00   0.00  0.00  0.00  0.90  0.10  0.00  0.00  0.94  0.00
  C4                      1.00   0.00  0.00  0.00  0.96  0.04  0.00  0.00  0.98  0.00
  C7                      1.00   0.00  0.00  0.00  0.91  0.09  0.00  0.00  0.96  0.00
  C14                     1.00   0.00  0.00  0.00  0.00  0.99  0.00  0.00  0.00  0.00
  C5                      1.00   0.00  0.00  0.00  0.92  0.08  0.00  0.00  0.83  0.00
  C8                      1.00   0.00  0.00  0.00  0.23  0.77  0.00  0.00  0.00  0.00
  C15                     1.00   0.00  0.00  0.00  0.00  1.00  0.00  0.00  0.00  0.00
  C21                     1.00   0.00  0.00  0.00  0.01  0.99  0.00  0.00  0.00  0.00
  
  
  *************************
  Conduit Surcharge Summary
  *************************
  
  ----------------------------------------------------------------------------
                                                           Hours        Hours 
                         --------- Hours Full --------   Above Full   Capacity
  Conduit                Both Ends  Upstream  Dnstream   Normal Flow   Limited
  ----------------------------------------------------------------------------
  C6                          0.01      0.91      0.01      0.55         0.01
  C10                         0.01      0.01      6.01      0.01         0.01
  C13                         0.01      0.01      5.86      0.01         0.01
  C18                         0.01      0.01      3.72      0.01         0.01
  C23                         0.01      0.01      6.31      0.01         0.01
  C4                          0.01      0.01      6.35      0.01         0.01
  C7                          0.01      0.01      6.09      0.01         0.01
  C5                          0.95      0.97      1.26      1.07         0.85
  C8                          0.01      0.98      0.01      0.98         0.01
  C15                         0.01      0.85      0.01      0.96         0.01
  C21                         0.01      0.35      0.01      0.30         0.01
  

  Analysis begun on:  Fri Sep  3 16:13:45 2021
  Analysis ended on:  Fri Sep  3 16:13:46 2021
  Total elapsed time: 00:00:01