
  EPA STORM WATER MANAGEMENT MODEL - VERSION 5.1 (Build 5.3.0.dev0)
  --------------------------------------------------------------

  
  *********************************************************
  NOTE: The summary statistics displayed in this report are
  based on results found at every computational time step,  
  not just on results from each reporting time step.
  *********************************************************
  
  ****************
  Analysis Options
  ****************
  Flow Units ............... CMS
  Process Models:
    Rainfall/Runoff ........ YES
    RDII ................... NO
    Snowmelt ............... NO
    Groundwater ............ NO
    Flow Routing ........... YES
    Ponding Allowed ........ YES
    Water Quality .......... NO
  Infiltration Method ...... HORTON
  Flow Routing Method ...... DYNWAVE
  Surcharge Method ......... EXTRAN
  Starting Date ............ 08/28/2015 08:00:00
  Ending Date .............. 08/28/2015 15:50:00
  Antecedent Dry Days ...... 0.0
  Report Time Step ......... 00:01:00
  Wet Time Step ............ 00:01:00
  Dry Time Step ............ 00:01:00
  Routing Time Step ........ 5.00 sec
  Variable Time Step ....... YES
  Maximum Trials ........... 8
  Number of Threads ........ 1
  Head Tolerance ........... 0.001500 m
  
  
  **************************        Volume         Depth
  Runoff Quantity Continuity     hectare-m            mm
  **************************     ---------       -------
  Total Precipitation ......         0.723         4.015
  Evaporation Loss .........         0.000         0.000
  Infiltration Loss ........         0.000         0.000
  Surface Runoff ...........         0.701         3.889
  Final Storage ............         0.023         0.126
  Continuity Error (%) .....        -0.008
  
  
  **************************        Volume        Volume
  Flow Routing Continuity        hectare-m      10^6 ltr
  **************************     ---------     ---------
  Dry Weather Inflow .......         0.396         3.955
  Wet Weather Inflow .......         0.701         7.008
  Groundwater Inflow .......         0.000         0.000
  RDII Inflow ..............         0.000         0.000
  External Inflow ..........         0.000         0.000
  External Outflow .........         0.569         5.693
  Flooding Loss ............         0.064         0.639
  Evaporation Loss .........         0.000         0.000
  Exfiltration Loss ........         0.000         0.000
  Initial Stored Volume ....         0.000         0.000
  Final Stored Volume ......         0.386         3.857
  Continuity Error (%) .....         7.070
  
  
  *************************
  Highest Continuity Errors
  *************************
  Node T5 (22.43%)
  Node T3 (15.25%)
  Node T1 (10.20%)
  Node T6 (5.48%)
  Node T4 (3.59%)
  
  
  ***************************
  Time-Step Critical Elements
  ***************************
  None
  
  
  ********************************
  Highest Flow Instability Indexes
  ********************************
  All links are stable.
  
  
  *************************
  Routing Time Step Summary
  *************************
  Minimum Time Step           :     4.50 sec
  Average Time Step           :     5.00 sec
  Maximum Time Step           :     5.00 sec
  Percent in Steady State     :     0.00
  Average Iterations per Step :     2.00
  Percent Not Converging      :     0.00
  
  
  ***************************
  Subcatchment Runoff Summary
  ***************************
  
  ------------------------------------------------------------------------------------------------------------------------------
                            Total      Total      Total      Total     Imperv       Perv      Total       Total     Peak  Runoff
                           Precip      Runon       Evap      Infil     Runoff     Runoff     Runoff      Runoff   Runoff   Coeff
  Subcatchment                 mm         mm         mm         mm         mm         mm         mm    10^6 ltr      CMS
  ------------------------------------------------------------------------------------------------------------------------------
  SC01                       4.01       0.00       0.00       0.00       3.93       0.00       3.93        1.30     0.28   0.979
  SC02                       4.01       0.00       0.00       0.00       3.92       0.00       3.92        0.89     0.19   0.978
  SC03                       4.01       0.00       0.00       0.00       3.95       0.00       3.95        0.71     0.16   0.983
  SC04                       4.01       0.00       0.00       0.00       3.83       0.00       3.83        0.26     0.05   0.954
  SC05                       4.01       0.00       0.00       0.00       3.92       0.00       3.92        0.61     0.13   0.977
  SC06                       4.01       0.00       0.00       0.00       3.78       0.00       3.78        1.23     0.23   0.942
  SC07                       4.01       0.00       0.00       0.00       3.83       0.00       3.83        0.18     0.04   0.954
  SC08                       4.01       0.00       0.00       0.00       3.90       0.00       3.90        1.09     0.23   0.972
  SC09                       4.01       0.00       0.00       0.00       3.88       0.00       3.88        0.27     0.05   0.966
  SC010                      4.01       0.00       0.00       0.00       3.90       0.00       3.90        0.46     0.10   0.973
  
  
  ******************
  Node Depth Summary
  ******************
  
  ---------------------------------------------------------------------------------
                                 Average  Maximum  Maximum  Time of Max    Reported
                                   Depth    Depth      HGL   Occurrence   Max Depth
  Node                 Type       Meters   Meters   Meters  days hr:min      Meters
  ---------------------------------------------------------------------------------
  J1                   JUNCTION     0.07     0.13    34.13     0  03:01        0.13
  J3                   JUNCTION     0.12     0.14    18.14     0  04:43        0.14
  CSO7                 JUNCTION     0.09     0.17    34.17     0  03:01        0.17
  J5                   JUNCTION     0.06     0.11    32.11     0  03:02        0.11
  CSO9                 JUNCTION     0.10     0.22    40.22     0  03:01        0.22
  J8                   JUNCTION     0.10     0.19    36.19     0  03:02        0.19
  CSO8                 JUNCTION     0.11     0.31    32.31     0  03:01        0.31
  J10                  JUNCTION     0.08     0.19    29.19     0  03:01        0.19
  J13                  JUNCTION     0.06     0.13    29.13     0  03:01        0.13
  J15                  JUNCTION     0.17     0.27    15.27     0  03:03        0.27
  J16                  JUNCTION     0.06     0.14    30.14     0  03:01        0.14
  CSO10                JUNCTION     0.10     0.26    30.26     0  03:01        0.26
  J12                  JUNCTION     0.13     0.23    26.23     0  03:03        0.23
  J4                   JUNCTION     0.11     0.20    33.20     0  03:03        0.20
  J6                   JUNCTION     0.07     0.09    25.09     0  03:44        0.09
  J2                   JUNCTION     0.06     0.07    25.07     0  04:35        0.07
  J19                  JUNCTION     0.14     0.17     8.17     0  03:15        0.17
  J9                   JUNCTION     0.11     0.14    29.14     0  03:47        0.14
  J14                  JUNCTION     0.13     0.16    20.16     0  06:05        0.16
  J17                  JUNCTION     0.08     0.11    20.11     0  03:27        0.11
  J7                   JUNCTION     0.07     0.15    39.15     0  03:02        0.15
  J11                  JUNCTION     0.09     0.21    31.21     0  03:02        0.21
  J18                  JUNCTION     0.05     0.12    29.12     0  03:02        0.12
  Out_to_WWTP          OUTFALL      0.14     0.17     6.17     0  06:59        0.17
  T5                   STORAGE      2.04     3.06    30.06     0  04:33        3.06
  T4                   STORAGE      0.74     1.46    28.46     0  03:42        1.46
  T6                   STORAGE      1.42     2.86    33.86     0  03:45        2.86
  T3                   STORAGE      1.71     2.67    24.67     0  05:53        2.67
  T2                   STORAGE      0.66     1.38    22.38     0  03:25        1.38
  T1                   STORAGE      3.44     5.00    15.00     0  03:14        5.00
  
  
  *******************
  Node Inflow Summary
  *******************
  
  -------------------------------------------------------------------------------------------------
                                  Maximum  Maximum                  Lateral       Total        Flow
                                  Lateral    Total  Time of Max      Inflow      Inflow     Balance
                                   Inflow   Inflow   Occurrence      Volume      Volume       Error
  Node                 Type           CMS      CMS  days hr:min    10^6 ltr    10^6 ltr     Percent
  -------------------------------------------------------------------------------------------------
  J1                   JUNCTION     0.156    0.156     0  03:01        1.17        1.17       0.057
  J3                   JUNCTION     0.000    0.207     0  04:41           0        4.21       0.897
  CSO7                 JUNCTION     0.047    0.047     0  03:01       0.472       0.472       0.096
  J5                   JUNCTION     0.056    0.099     0  03:01       0.392        0.86       0.158
  CSO9                 JUNCTION     0.062    0.062     0  03:01       0.464       0.464       0.095
  J8                   JUNCTION     0.264    0.323     0  03:01        2.17        2.63       0.169
  CSO8                 JUNCTION     0.239    0.239     0  03:01        1.38        1.38       0.039
  J10                  JUNCTION     0.178    0.406     0  03:01         1.1        2.47       0.218
  J13                  JUNCTION     0.213    0.213     0  03:01        1.36        1.36      -0.222
  J15                  JUNCTION     0.000    0.636     0  03:01           0         7.9       1.109
  J16                  JUNCTION     0.307    0.307     0  03:01        1.85        1.85       0.021
  CSO10                JUNCTION     0.102    0.102     0  03:01       0.598       0.598       0.071
  J12                  JUNCTION     0.000    0.508     0  03:01           0        4.84       0.543
  J4                   JUNCTION     0.000    0.047     0  03:01           0       0.472       0.798
  J6                   JUNCTION     0.000    0.043     0  03:42           0       0.785       0.432
  J2                   JUNCTION     0.000    0.031     0  04:33           0       0.654       0.683
  J19                  JUNCTION     0.000    0.271     0  03:14           0        5.71       0.219
  J9                   JUNCTION     0.000    0.132     0  03:45           0        2.39       0.711
  J14                  JUNCTION     0.000    0.138     0  05:53           0        2.79       0.285
  J17                  JUNCTION     0.000    0.073     0  03:25           0        1.28       0.449
  J7                   JUNCTION     0.000    0.062     0  03:01           0       0.463       0.695
  J11                  JUNCTION     0.000    0.238     0  03:01           0        1.38       0.424
  J18                  JUNCTION     0.000    0.101     0  03:01           0       0.597       0.161
  Out_to_WWTP          OUTFALL      0.000    0.271     0  03:15           0        5.69       0.000
  T5                   STORAGE      0.000    0.154     0  03:01           0        1.17      28.910
  T4                   STORAGE      0.000    0.098     0  03:02           0       0.859       3.721
  T6                   STORAGE      0.000    0.317     0  03:02           0        2.63       5.802
  T3                   STORAGE      0.000    0.497     0  03:03           0        4.81      18.000
  T2                   STORAGE      0.000    0.210     0  03:01           0        1.36       2.416
  T1                   STORAGE      0.000    0.617     0  03:03           0        7.81      11.354
  
  
  **********************
  Node Surcharge Summary
  **********************
  
  No nodes were surcharged.
  
  
  *********************
  Node Flooding Summary
  *********************
  
  Flooding refers to all water that overflows a node, whether it ponds or not.
  --------------------------------------------------------------------------
                                                             Total   Maximum
                                 Maximum   Time of Max       Flood    Ponded
                        Hours       Rate    Occurrence      Volume     Depth
  Node                 Flooded       CMS   days hr:min    10^6 ltr    Meters
  --------------------------------------------------------------------------
  T1                      3.30     0.234      0  03:14       0.639     0.000
  
  
  **********************
  Storage Volume Summary
  **********************
  
  --------------------------------------------------------------------------------------------------
                         Average     Avg  Evap Exfil       Maximum     Max    Time of Max    Maximum
                          Volume    Pcnt  Pcnt  Pcnt        Volume    Pcnt     Occurrence    Outflow
  Storage Unit           1000 m3    Full  Loss  Loss       1000 m3    Full    days hr:min        CMS
  --------------------------------------------------------------------------------------------------
  T5                       0.204      41     0     0         0.306      61       0  04:33      0.031
  T4                       0.074      15     0     0         0.146      29       0  03:42      0.043
  T6                       0.171      28     0     0         0.343      57       0  03:45      0.132
  T3                       0.887      34     0     0         1.389      53       0  05:53      0.138
  T2                       0.131      13     0     0         0.277      28       0  03:25      0.073
  T1                       0.482      69     0     0         0.700     100       0  03:14      0.271
  
  
  ***********************
  Outfall Loading Summary
  ***********************
  
  -----------------------------------------------------------
                         Flow       Avg       Max       Total
                         Freq      Flow      Flow      Volume
  Outfall Node           Pcnt       CMS       CMS    10^6 ltr
  -----------------------------------------------------------
  Out_to_WWTP           99.01     0.204     0.271       5.693
  -----------------------------------------------------------
  System                99.01     0.204     0.271       5.693
  
  
  ********************
  Link Flow Summary
  ********************
  
  -----------------------------------------------------------------------------
                                 Maximum  Time of Max   Maximum    Max/    Max/
                                  |Flow|   Occurrence   |Veloc|    Full    Full
  Link                 Type          CMS  days hr:min     m/sec    Flow   Depth
  -----------------------------------------------------------------------------
  C1                   CONDUIT     0.031     0  04:35      0.91    0.01    0.11
  C6                   CONDUIT     0.045     0  03:03      1.22    0.71    0.52
  C2                   CONDUIT     0.043     0  03:44      1.13    0.05    0.19
  C9                   CONDUIT     0.060     0  03:02      1.02    0.20    0.34
  C16                  CONDUIT     0.232     0  03:02      1.41    0.02    0.10
  C3                   CONDUIT     0.138     0  05:54      1.87    0.05    0.15
  C19                  CONDUIT     0.073     0  03:27      0.93    0.03    0.19
  C11                  CONDUIT     0.207     0  04:43      1.71    0.01    0.10
  C20                  CONDUIT     0.303     0  03:01      1.85    0.01    0.10
  C22                  CONDUIT     0.099     0  03:02      1.09    0.04    0.24
  C12                  CONDUIT     0.132     0  03:47      1.28    0.01    0.09
  C17                  CONDUIT     0.398     0  03:01      2.20    0.02    0.11
  C10                  CONDUIT     0.317     0  03:02      1.66    0.03    0.56
  C13                  CONDUIT     0.497     0  03:03      1.53    0.03    0.55
  C18                  CONDUIT     0.210     0  03:01      1.72    0.01    0.37
  C23                  CONDUIT     0.617     0  03:03      1.26    0.07    0.59
  C4                   CONDUIT     0.154     0  03:01      1.98    0.04    0.57
  C7                   CONDUIT     0.098     0  03:02      1.43    0.02    0.55
  C14                  CONDUIT     0.271     0  03:15      2.08    0.02    0.09
  C5                   CONDUIT     0.047     0  03:01      1.22    0.80    0.73
  C8                   CONDUIT     0.062     0  03:01      1.27    0.78    0.59
  C15                  CONDUIT     0.238     0  03:01      2.52    0.76    0.57
  C21                  CONDUIT     0.101     0  03:01      1.62    0.58    0.43
  V4                   ORIFICE     0.043     0  03:42                      1.00
  V5                   ORIFICE     0.031     0  04:33                      1.00
  V1                   ORIFICE     0.271     0  03:14                      1.00
  V6                   ORIFICE     0.132     0  03:45                      1.00
  V3                   ORIFICE     0.138     0  05:53                      1.00
  V2                   ORIFICE     0.073     0  03:25                      1.00
  
  
  ***************************
  Flow Classification Summary
  ***************************
  
  -------------------------------------------------------------------------------------
                      Adjusted    ---------- Fraction of Time in Flow Class ---------- 
                       /Actual         Up    Down  Sub   Sup   Up    Down  Norm  Inlet 
  Conduit               Length    Dry  Dry   Dry   Crit  Crit  Crit  Crit  Ltd   Ctrl  
  -------------------------------------------------------------------------------------
  C1                      1.00   0.00  0.00  0.00  0.92  0.08  0.00  0.00  0.95  0.00
  C6                      1.00   0.00  0.00  0.00  0.01  0.99  0.00  0.00  0.00  0.00
  C2                      1.00   0.00  0.00  0.00  0.14  0.86  0.00  0.00  0.94  0.00
  C9                      1.00   0.00  0.00  0.00  1.00  0.00  0.00  0.00  1.00  0.00
  C16                     1.00   0.00  0.00  0.00  0.61  0.39  0.00  0.00  0.50  0.00
  C3                      1.00   0.00  0.00  0.00  0.05  0.94  0.00  0.00  0.07  0.00
  C19                     1.00   0.00  0.00  0.00  1.00  0.00  0.00  0.00  1.00  0.00
  C11                     1.00   0.00  0.00  0.00  0.27  0.73  0.00  0.00  1.00  0.00
  C20                     1.00   0.00  0.00  0.00  0.64  0.36  0.00  0.00  0.98  0.00
  C22                     1.00   0.00  0.00  0.00  0.97  0.03  0.00  0.00  1.00  0.00
  C12                     1.00   0.00  0.00  0.00  0.35  0.65  0.00  0.00  0.68  0.00
  C17                     1.00   0.00  0.00  0.00  0.49  0.51  0.00  0.00  0.97  0.00
  C10                     1.00   0.00  0.00  0.00  0.94  0.06  0.00  0.00  0.97  0.00
  C13                     1.00   0.00  0.00  0.00  0.87  0.13  0.00  0.00  0.91  0.00
  C18                     1.00   0.00  0.00  0.00  0.81  0.19  0.00  0.00  0.97  0.00
  C23                     1.00   0.00  0.00  0.00  0.90  0.10  0.00  0.00  0.94  0.00
  C4                      1.00   0.00  0.00  0.00  0.96  0.04  0.00  0.00  0.98  0.00
  C7                      1.00   0.00  0.00  0.00  0.91  0.09  0.00  0.00  0.96  0.00
  C14                     1.00   0.00  0.00  0.00  0.00  0.99  0.00  0.00  0.11  0.00
  C5                      1.00   0.00  0.00  0.00  0.88  0.12  0.00  0.00  0.98  0.00
  C8                      1.00   0.00  0.00  0.00  0.00  1.00  0.00  0.00  0.00  0.00
  C15                     1.00   0.00  0.00  0.00  0.00  1.00  0.00  0.00  0.00  0.00
  C21                     1.00   0.00  0.00  0.00  0.00  1.00  0.00  0.00  0.00  0.00
  
  
  *************************
  Conduit Surcharge Summary
  *************************
  
  ----------------------------------------------------------------------------
                                                           Hours        Hours 
                         --------- Hours Full --------   Above Full   Capacity
  Conduit                Both Ends  Upstream  Dnstream   Normal Flow   Limited
  ----------------------------------------------------------------------------
  C10                         0.01      0.01      3.62      0.01         0.01
  C13                         0.01      0.01      4.55      0.01         0.01
  C23                         0.01      0.01      5.63      0.01         0.01
  C4                          0.01      0.01      5.63      0.01         0.01
  C7                          0.01      0.01      2.67      0.01         0.01
  

  Analysis begun on:  Fri Sep  3 15:49:31 2021
  Analysis ended on:  Fri Sep  3 15:49:31 2021
  Total elapsed time: < 1 sec