
  EPA STORM WATER MANAGEMENT MODEL - VERSION 5.1 (Build 5.3.0.dev0)
  --------------------------------------------------------------

  
  *********************************************************
  NOTE: The summary statistics displayed in this report are
  based on results found at every computational time step,  
  not just on results from each reporting time step.
  *********************************************************
  
  ****************
  Analysis Options
  ****************
  Flow Units ............... CMS
  Process Models:
    Rainfall/Runoff ........ YES
    RDII ................... NO
    Snowmelt ............... NO
    Groundwater ............ NO
    Flow Routing ........... YES
    Ponding Allowed ........ YES
    Water Quality .......... NO
  Infiltration Method ...... HORTON
  Flow Routing Method ...... DYNWAVE
  Surcharge Method ......... EXTRAN
  Starting Date ............ 08/28/2015 08:00:00
  Ending Date .............. 08/28/2015 15:50:00
  Antecedent Dry Days ...... 0.0
  Report Time Step ......... 00:01:00
  Wet Time Step ............ 00:01:00
  Dry Time Step ............ 00:01:00
  Routing Time Step ........ 5.00 sec
  Variable Time Step ....... YES
  Maximum Trials ........... 8
  Number of Threads ........ 1
  Head Tolerance ........... 0.001500 m
  
  
  **************************        Volume         Depth
  Runoff Quantity Continuity     hectare-m            mm
  **************************     ---------       -------
  Total Precipitation ......         1.470         8.155
  Evaporation Loss .........         0.000         0.000
  Infiltration Loss ........         0.000         0.000
  Surface Runoff ...........         1.446         8.025
  Final Storage ............         0.024         0.131
  Continuity Error (%) .....        -0.007
  
  
  **************************        Volume        Volume
  Flow Routing Continuity        hectare-m      10^6 ltr
  **************************     ---------     ---------
  Dry Weather Inflow .......         0.396         3.955
  Wet Weather Inflow .......         1.446        14.461
  Groundwater Inflow .......         0.000         0.000
  RDII Inflow ..............         0.000         0.000
  External Inflow ..........         0.000         0.000
  External Outflow .........         0.606         6.059
  Flooding Loss ............         0.502         5.017
  Evaporation Loss .........         0.000         0.000
  Exfiltration Loss ........         0.000         0.000
  Initial Stored Volume ....         0.000         0.000
  Final Stored Volume ......         0.588         5.883
  Continuity Error (%) .....         7.911
  
  
  *************************
  Highest Continuity Errors
  *************************
  Node T5 (22.02%)
  Node T3 (16.96%)
  Node T1 (6.98%)
  Node T2 (6.76%)
  Node T6 (6.25%)
  
  
  ***************************
  Time-Step Critical Elements
  ***************************
  None
  
  
  ********************************
  Highest Flow Instability Indexes
  ********************************
  Link C13 (2)
  
  
  *************************
  Routing Time Step Summary
  *************************
  Minimum Time Step           :     4.50 sec
  Average Time Step           :     5.00 sec
  Maximum Time Step           :     5.00 sec
  Percent in Steady State     :     0.00
  Average Iterations per Step :     2.14
  Percent Not Converging      :     0.66
  
  
  ***************************
  Subcatchment Runoff Summary
  ***************************
  
  ------------------------------------------------------------------------------------------------------------------------------
                            Total      Total      Total      Total     Imperv       Perv      Total       Total     Peak  Runoff
                           Precip      Runon       Evap      Infil     Runoff     Runoff     Runoff      Runoff   Runoff   Coeff
  Subcatchment                 mm         mm         mm         mm         mm         mm         mm    10^6 ltr      CMS
  ------------------------------------------------------------------------------------------------------------------------------
  SC01                       8.16       0.00       0.00       0.00       8.07       0.00       8.07        2.66     0.53   0.989
  SC02                       8.16       0.00       0.00       0.00       8.06       0.00       8.06        1.83     0.37   0.989
  SC03                       8.16       0.00       0.00       0.00       8.09       0.00       8.09        1.46     0.30   0.992
  SC04                       8.16       0.00       0.00       0.00       7.96       0.00       7.96        0.55     0.10   0.976
  SC05                       8.16       0.00       0.00       0.00       8.06       0.00       8.06        1.26     0.25   0.989
  SC06                       8.16       0.00       0.00       0.00       7.91       0.00       7.91        2.57     0.47   0.970
  SC07                       8.16       0.00       0.00       0.00       7.96       0.00       7.96        0.38     0.07   0.976
  SC08                       8.16       0.00       0.00       0.00       8.04       0.00       8.04        2.25     0.44   0.986
  SC09                       8.16       0.00       0.00       0.00       8.01       0.00       8.01        0.55     0.11   0.983
  SC010                      8.16       0.00       0.00       0.00       8.04       0.00       8.04        0.95     0.19   0.986
  
  
  ******************
  Node Depth Summary
  ******************
  
  ---------------------------------------------------------------------------------
                                 Average  Maximum  Maximum  Time of Max    Reported
                                   Depth    Depth      HGL   Occurrence   Max Depth
  Node                 Type       Meters   Meters   Meters  days hr:min      Meters
  ---------------------------------------------------------------------------------
  J1                   JUNCTION     0.08     0.17    34.17     0  03:01        0.17
  J3                   JUNCTION     0.13     0.17    18.17     0  03:56        0.17
  CSO7                 JUNCTION     0.17     1.20    35.20     0  02:38        1.20
  J5                   JUNCTION     0.07     0.14    32.14     0  03:01        0.14
  CSO9                 JUNCTION     0.17     1.51    41.51     0  03:01        1.50
  J8                   JUNCTION     0.12     0.26    36.26     0  03:01        0.25
  CSO8                 JUNCTION     0.20     1.65    33.65     0  03:01        1.65
  J10                  JUNCTION     0.10     0.26    29.26     0  03:01        0.26
  J13                  JUNCTION     0.07     0.17    29.17     0  03:01        0.17
  J15                  JUNCTION     0.21     0.35    15.35     0  03:02        0.35
  J16                  JUNCTION     0.07     0.18    30.18     0  03:01        0.18
  CSO10                JUNCTION     0.14     0.82    30.82     0  03:01        0.82
  J12                  JUNCTION     0.39     0.62    26.62     0  05:30        0.62
  J4                   JUNCTION     0.16     1.09    34.09     0  02:38        0.76
  J6                   JUNCTION     0.08     0.11    25.11     0  03:37        0.11
  J2                   JUNCTION     0.07     0.08    25.08     0  03:51        0.08
  J19                  JUNCTION     0.15     0.17     8.17     0  02:27        0.17
  J9                   JUNCTION     0.13     0.16    29.16     0  03:45        0.16
  J14                  JUNCTION     0.15     0.18    20.18     0  06:20        0.18
  J17                  JUNCTION     0.10     0.13    20.13     0  03:23        0.13
  J7                   JUNCTION     0.09     0.21    39.21     0  03:01        0.21
  J11                  JUNCTION     0.11     0.28    31.28     0  03:01        0.28
  J18                  JUNCTION     0.06     0.16    29.16     0  03:01        0.16
  Out_to_WWTP          OUTFALL      0.14     0.17     6.17     0  02:26        0.17
  T5                   STORAGE      3.40     5.00    32.00     0  03:01        5.00
  T4                   STORAGE      1.66     3.33    30.33     0  03:35        3.33
  T6                   STORAGE      2.67     5.00    36.00     0  02:56        5.00
  T3                   STORAGE      3.11     4.63    26.63     0  05:26        4.63
  T2                   STORAGE      1.55     3.20    24.20     0  03:21        3.20
  T1                   STORAGE      3.78     5.00    15.00     0  02:26        5.00
  
  
  *******************
  Node Inflow Summary
  *******************
  
  -------------------------------------------------------------------------------------------------
                                  Maximum  Maximum                  Lateral       Total        Flow
                                  Lateral    Total  Time of Max      Inflow      Inflow     Balance
                                   Inflow   Inflow   Occurrence      Volume      Volume       Error
  Node                 Type           CMS      CMS  days hr:min    10^6 ltr    10^6 ltr     Percent
  -------------------------------------------------------------------------------------------------
  J1                   JUNCTION     0.274    0.274     0  03:01        1.82        1.82       0.017
  J3                   JUNCTION     0.000    0.284     0  03:55           0        5.77       0.810
  CSO7                 JUNCTION     0.083    0.083     0  03:01       0.669       0.669       0.067
  J5                   JUNCTION     0.108    0.179     0  03:01       0.677        1.34       0.084
  CSO9                 JUNCTION     0.114    0.114     0  03:01       0.749       0.749       0.070
  J8                   JUNCTION     0.509    0.620     0  03:01        3.52        4.26       0.088
  CSO8                 JUNCTION     0.451    0.451     0  03:01        2.54        2.54       0.024
  J10                  JUNCTION     0.314    0.755     0  03:01        1.84        4.38       0.059
  J13                  JUNCTION     0.385    0.385     0  03:01         2.3         2.3      -0.228
  J15                  JUNCTION     0.000    1.098     0  03:01           0          12       0.919
  J16                  JUNCTION     0.557    0.557     0  03:01        3.22        3.22      -0.026
  CSO10                JUNCTION     0.191    0.191     0  03:01        1.08        1.08       0.032
  J12                  JUNCTION     0.000    0.920     0  03:01           0        7.64       3.816
  J4                   JUNCTION     0.000    0.071     0  03:01           0       0.662       0.521
  J6                   JUNCTION     0.000    0.065     0  03:36           0        1.17       0.390
  J2                   JUNCTION     0.000    0.039     0  03:01           0       0.841       0.630
  J19                  JUNCTION     0.000    0.271     0  02:26           0        6.07       0.209
  J9                   JUNCTION     0.000    0.175     0  02:56           0        3.27       0.582
  J14                  JUNCTION     0.000    0.182     0  05:26           0        3.78       0.258
  J17                  JUNCTION     0.000    0.112     0  03:21           0        1.98       0.462
  J7                   JUNCTION     0.000    0.114     0  03:01           0       0.749       0.421
  J11                  JUNCTION     0.000    0.451     0  03:01           0        2.54       0.244
  J18                  JUNCTION     0.000    0.191     0  03:01           0        1.08       0.049
  Out_to_WWTP          OUTFALL      0.000    0.271     0  02:27           0        6.06       0.000
  T5                   STORAGE      0.000    0.272     0  03:01           0        1.82      28.238
  T4                   STORAGE      0.000    0.178     0  03:01           0        1.33       6.085
  T6                   STORAGE      0.000    0.613     0  03:01           0        4.26       6.662
  T3                   STORAGE      0.000    0.907     0  03:02           0        7.36      20.422
  T2                   STORAGE      0.000    0.382     0  03:01           0        2.31       7.252
  T1                   STORAGE      0.000    1.074     0  03:02           0        11.9       7.504
  
  
  **********************
  Node Surcharge Summary
  **********************
  
  Surcharging occurs when water rises above the top of the highest conduit.
  ---------------------------------------------------------------------
                                               Max. Height   Min. Depth
                                   Hours       Above Crown    Below Rim
  Node                 Type      Surcharged         Meters       Meters
  ---------------------------------------------------------------------
  CSO7                 JUNCTION        0.64          0.945        0.000
  CSO9                 JUNCTION        0.74          1.188        0.494
  CSO8                 JUNCTION        0.61          1.200        0.347
  CSO10                JUNCTION        0.12          0.379        0.181
  J4                   JUNCTION        0.60          0.794        0.906
  
  
  *********************
  Node Flooding Summary
  *********************
  
  Flooding refers to all water that overflows a node, whether it ponds or not.
  --------------------------------------------------------------------------
                                                             Total   Maximum
                                 Maximum   Time of Max       Flood    Ponded
                        Hours       Rate    Occurrence      Volume     Depth
  Node                 Flooded       CMS   days hr:min    10^6 ltr    Meters
  --------------------------------------------------------------------------
  CSO7                    0.34     0.012      0  03:01       0.006     0.000
  T5                      0.91     0.233      0  03:01       0.176     0.000
  T6                      0.83     0.438      0  03:01       0.554     0.000
  T1                      5.40     0.803      0  03:02       4.281     0.000
  
  
  **********************
  Storage Volume Summary
  **********************
  
  --------------------------------------------------------------------------------------------------
                         Average     Avg  Evap Exfil       Maximum     Max    Time of Max    Maximum
                          Volume    Pcnt  Pcnt  Pcnt        Volume    Pcnt     Occurrence    Outflow
  Storage Unit           1000 m3    Full  Loss  Loss       1000 m3    Full    days hr:min        CMS
  --------------------------------------------------------------------------------------------------
  T5                       0.340      68     0     0         0.500     100       0  03:01      0.039
  T4                       0.166      33     0     0         0.333      67       0  03:35      0.065
  T6                       0.321      53     0     0         0.600     100       0  02:56      0.175
  T3                       1.619      62     0     0         2.406      93       0  05:26      0.212
  T2                       0.310      31     0     0         0.640      64       0  03:21      0.112
  T1                       0.529      76     0     0         0.700     100       0  02:26      0.271
  
  
  ***********************
  Outfall Loading Summary
  ***********************
  
  -----------------------------------------------------------
                         Flow       Avg       Max       Total
                         Freq      Flow      Flow      Volume
  Outfall Node           Pcnt       CMS       CMS    10^6 ltr
  -----------------------------------------------------------
  Out_to_WWTP           99.01     0.217     0.271       6.059
  -----------------------------------------------------------
  System                99.01     0.217     0.271       6.059
  
  
  ********************
  Link Flow Summary
  ********************
  
  -----------------------------------------------------------------------------
                                 Maximum  Time of Max   Maximum    Max/    Max/
                                  |Flow|   Occurrence   |Veloc|    Full    Full
  Link                 Type          CMS  days hr:min     m/sec    Flow   Depth
  -----------------------------------------------------------------------------
  C1                   CONDUIT     0.039     0  03:51      0.91    0.01    0.12
  C6                   CONDUIT     0.071     0  03:01      1.29    1.12    0.74
  C2                   CONDUIT     0.065     0  03:37      1.33    0.07    0.23
  C9                   CONDUIT     0.111     0  03:01      1.23    0.38    0.47
  C16                  CONDUIT     0.443     0  03:01      1.72    0.04    0.14
  C3                   CONDUIT     0.182     0  05:26      2.04    0.07    0.17
  C19                  CONDUIT     0.112     0  03:23      1.10    0.04    0.24
  C11                  CONDUIT     0.284     0  03:56      1.84    0.01    0.13
  C20                  CONDUIT     0.553     0  03:01      2.24    0.02    0.13
  C22                  CONDUIT     0.188     0  03:01      1.38    0.09    0.32
  C12                  CONDUIT     0.175     0  03:45      1.02    0.01    0.19
  C17                  CONDUIT     0.746     0  03:01      2.68    0.04    0.17
  C10                  CONDUIT     0.613     0  03:01      1.66    0.06    0.59
  C13                  CONDUIT     0.907     0  03:02      1.53    0.05    0.66
  C18                  CONDUIT     0.382     0  03:01      1.72    0.01    0.54
  C23                  CONDUIT     1.074     0  03:02      1.26    0.12    0.62
  C4                   CONDUIT     0.272     0  03:01      1.98    0.07    0.59
  C7                   CONDUIT     0.178     0  03:01      1.43    0.04    0.57
  C14                  CONDUIT     0.271     0  02:27      2.08    0.02    0.09
  C5                   CONDUIT     0.071     0  03:01      1.38    1.21    1.00
  C8                   CONDUIT     0.114     0  03:01      1.61    1.44    0.84
  C15                  CONDUIT     0.451     0  03:01      3.21    1.43    0.81
  C21                  CONDUIT     0.191     0  03:01      1.76    1.09    0.68
  V4                   ORIFICE     0.065     0  03:36                      1.00
  V5                   ORIFICE     0.039     0  03:01                      1.00
  V1                   ORIFICE     0.271     0  02:26                      1.00
  V6                   ORIFICE     0.175     0  02:56                      1.00
  V3                   ORIFICE     0.182     0  05:26                      1.00
  V2                   ORIFICE     0.112     0  03:21                      1.00
  
  
  ***************************
  Flow Classification Summary
  ***************************
  
  -------------------------------------------------------------------------------------
                      Adjusted    ---------- Fraction of Time in Flow Class ---------- 
                       /Actual         Up    Down  Sub   Sup   Up    Down  Norm  Inlet 
  Conduit               Length    Dry  Dry   Dry   Crit  Crit  Crit  Crit  Ltd   Ctrl  
  -------------------------------------------------------------------------------------
  C1                      1.00   0.00  0.00  0.00  0.92  0.08  0.00  0.00  0.95  0.00
  C6                      1.00   0.00  0.00  0.00  0.12  0.88  0.00  0.00  0.00  0.00
  C2                      1.00   0.00  0.00  0.00  0.04  0.96  0.00  0.00  0.94  0.00
  C9                      1.00   0.00  0.00  0.00  1.00  0.00  0.00  0.00  1.00  0.00
  C16                     1.00   0.00  0.00  0.00  0.55  0.45  0.00  0.00  0.43  0.00
  C3                      1.00   0.00  0.00  0.00  0.05  0.94  0.00  0.00  0.07  0.00
  C19                     1.00   0.00  0.00  0.00  1.00  0.00  0.00  0.00  1.00  0.00
  C11                     1.00   0.00  0.00  0.00  0.31  0.69  0.00  0.00  1.00  0.00
  C20                     1.00   0.00  0.00  0.00  0.63  0.37  0.00  0.00  0.98  0.00
  C22                     1.00   0.00  0.00  0.00  0.79  0.21  0.00  0.00  1.00  0.00
  C12                     1.00   0.00  0.00  0.00  0.93  0.06  0.00  0.00  1.00  0.00
  C17                     1.00   0.00  0.00  0.00  0.57  0.43  0.00  0.00  0.97  0.00
  C10                     1.00   0.00  0.00  0.00  0.94  0.06  0.00  0.00  0.97  0.00
  C13                     1.00   0.00  0.00  0.00  0.84  0.16  0.00  0.00  0.32  0.00
  C18                     1.00   0.00  0.00  0.00  0.82  0.18  0.00  0.00  0.97  0.00
  C23                     1.00   0.00  0.00  0.00  0.90  0.10  0.00  0.00  0.94  0.00
  C4                      1.00   0.00  0.00  0.00  0.96  0.04  0.00  0.00  0.98  0.00
  C7                      1.00   0.00  0.00  0.00  0.91  0.09  0.00  0.00  0.96  0.00
  C14                     1.00   0.00  0.00  0.00  0.00  0.99  0.00  0.00  0.00  0.00
  C5                      1.00   0.00  0.00  0.00  0.90  0.10  0.00  0.00  0.89  0.00
  C8                      1.00   0.00  0.00  0.00  0.16  0.84  0.00  0.00  0.00  0.00
  C15                     1.00   0.00  0.00  0.00  0.00  1.00  0.00  0.00  0.00  0.00
  C21                     1.00   0.00  0.00  0.00  0.00  1.00  0.00  0.00  0.00  0.00
  
  
  *************************
  Conduit Surcharge Summary
  *************************
  
  ----------------------------------------------------------------------------
                                                           Hours        Hours 
                         --------- Hours Full --------   Above Full   Capacity
  Conduit                Both Ends  Upstream  Dnstream   Normal Flow   Limited
  ----------------------------------------------------------------------------
  C6                          0.01      0.59      0.01      0.49         0.01
  C10                         0.01      0.01      5.64      0.01         0.01
  C13                         0.01      0.01      5.36      0.01         0.01
  C18                         0.01      0.01      2.77      0.01         0.01
  C23                         0.01      0.01      6.06      0.01         0.01
  C4                          0.01      0.01      6.09      0.01         0.01
  C7                          0.01      0.01      5.47      0.01         0.01
  C5                          0.64      0.64      0.82      0.79         0.62
  C8                          0.01      0.74      0.01      0.78         0.01
  C15                         0.01      0.61      0.01      0.77         0.01
  C21                         0.01      0.12      0.01      0.14         0.01
  

  Analysis begun on:  Fri Sep  3 15:46:25 2021
  Analysis ended on:  Fri Sep  3 15:46:26 2021
  Total elapsed time: 00:00:01