
  EPA STORM WATER MANAGEMENT MODEL - VERSION 5.1 (Build 5.3.0.dev0)
  --------------------------------------------------------------

  
  *********************************************************
  NOTE: The summary statistics displayed in this report are
  based on results found at every computational time step,  
  not just on results from each reporting time step.
  *********************************************************
  
  ****************
  Analysis Options
  ****************
  Flow Units ............... CMS
  Process Models:
    Rainfall/Runoff ........ YES
    RDII ................... NO
    Snowmelt ............... NO
    Groundwater ............ NO
    Flow Routing ........... YES
    Ponding Allowed ........ YES
    Water Quality .......... NO
  Infiltration Method ...... HORTON
  Flow Routing Method ...... DYNWAVE
  Surcharge Method ......... EXTRAN
  Starting Date ............ 08/28/2015 08:00:00
  Ending Date .............. 08/28/2015 15:50:00
  Antecedent Dry Days ...... 0.0
  Report Time Step ......... 00:01:00
  Wet Time Step ............ 00:01:00
  Dry Time Step ............ 00:01:00
  Routing Time Step ........ 5.00 sec
  Variable Time Step ....... YES
  Maximum Trials ........... 8
  Number of Threads ........ 1
  Head Tolerance ........... 0.001500 m
  
  
  **************************        Volume         Depth
  Runoff Quantity Continuity     hectare-m            mm
  **************************     ---------       -------
  Total Precipitation ......         0.691         3.835
  Evaporation Loss .........         0.000         0.000
  Infiltration Loss ........         0.000         0.000
  Surface Runoff ...........         0.668         3.710
  Final Storage ............         0.023         0.126
  Continuity Error (%) .....        -0.008
  
  
  **************************        Volume        Volume
  Flow Routing Continuity        hectare-m      10^6 ltr
  **************************     ---------     ---------
  Dry Weather Inflow .......         0.396         3.955
  Wet Weather Inflow .......         0.668         6.685
  Groundwater Inflow .......         0.000         0.000
  RDII Inflow ..............         0.000         0.000
  External Inflow ..........         0.000         0.000
  External Outflow .........         0.566         5.662
  Flooding Loss ............         0.049         0.493
  Evaporation Loss .........         0.000         0.000
  Exfiltration Loss ........         0.000         0.000
  Initial Stored Volume ....         0.000         0.000
  Final Stored Volume ......         0.376         3.757
  Continuity Error (%) .....         6.849
  
  
  *************************
  Highest Continuity Errors
  *************************
  Node T5 (22.27%)
  Node T3 (15.13%)
  Node T1 (10.30%)
  Node T6 (5.34%)
  Node T4 (3.49%)
  
  
  ***************************
  Time-Step Critical Elements
  ***************************
  None
  
  
  ********************************
  Highest Flow Instability Indexes
  ********************************
  All links are stable.
  
  
  *************************
  Routing Time Step Summary
  *************************
  Minimum Time Step           :     4.50 sec
  Average Time Step           :     5.00 sec
  Maximum Time Step           :     5.00 sec
  Percent in Steady State     :     0.00
  Average Iterations per Step :     2.00
  Percent Not Converging      :     0.00
  
  
  ***************************
  Subcatchment Runoff Summary
  ***************************
  
  ------------------------------------------------------------------------------------------------------------------------------
                            Total      Total      Total      Total     Imperv       Perv      Total       Total     Peak  Runoff
                           Precip      Runon       Evap      Infil     Runoff     Runoff     Runoff      Runoff   Runoff   Coeff
  Subcatchment                 mm         mm         mm         mm         mm         mm         mm    10^6 ltr      CMS
  ------------------------------------------------------------------------------------------------------------------------------
  SC01                       3.84       0.00       0.00       0.00       3.75       0.00       3.75        1.24     0.27   0.978
  SC02                       3.84       0.00       0.00       0.00       3.75       0.00       3.75        0.85     0.18   0.977
  SC03                       3.84       0.00       0.00       0.00       3.77       0.00       3.77        0.68     0.15   0.982
  SC04                       3.84       0.00       0.00       0.00       3.65       0.00       3.65        0.25     0.05   0.952
  SC05                       3.84       0.00       0.00       0.00       3.74       0.00       3.74        0.58     0.13   0.976
  SC06                       3.84       0.00       0.00       0.00       3.60       0.00       3.60        1.17     0.21   0.940
  SC07                       3.84       0.00       0.00       0.00       3.65       0.00       3.65        0.17     0.03   0.952
  SC08                       3.84       0.00       0.00       0.00       3.72       0.00       3.72        1.04     0.22   0.970
  SC09                       3.84       0.00       0.00       0.00       3.70       0.00       3.70        0.26     0.05   0.964
  SC010                      3.84       0.00       0.00       0.00       3.72       0.00       3.72        0.44     0.09   0.971
  
  
  ******************
  Node Depth Summary
  ******************
  
  ---------------------------------------------------------------------------------
                                 Average  Maximum  Maximum  Time of Max    Reported
                                   Depth    Depth      HGL   Occurrence   Max Depth
  Node                 Type       Meters   Meters   Meters  days hr:min      Meters
  ---------------------------------------------------------------------------------
  J1                   JUNCTION     0.07     0.13    34.13     0  03:01        0.13
  J3                   JUNCTION     0.11     0.14    18.14     0  04:45        0.14
  CSO7                 JUNCTION     0.09     0.17    34.17     0  03:01        0.17
  J5                   JUNCTION     0.06     0.10    32.10     0  03:02        0.10
  CSO9                 JUNCTION     0.09     0.21    40.21     0  03:01        0.21
  J8                   JUNCTION     0.10     0.18    36.18     0  03:02        0.18
  CSO8                 JUNCTION     0.11     0.30    32.30     0  03:01        0.30
  J10                  JUNCTION     0.08     0.19    29.19     0  03:01        0.19
  J13                  JUNCTION     0.06     0.12    29.12     0  03:01        0.12
  J15                  JUNCTION     0.17     0.26    15.26     0  03:03        0.26
  J16                  JUNCTION     0.06     0.13    30.13     0  03:01        0.13
  CSO10                JUNCTION     0.10     0.26    30.26     0  03:01        0.26
  J12                  JUNCTION     0.13     0.23    26.23     0  03:03        0.23
  J4                   JUNCTION     0.11     0.20    33.20     0  03:03        0.20
  J6                   JUNCTION     0.07     0.09    25.09     0  03:44        0.09
  J2                   JUNCTION     0.06     0.07    25.07     0  04:40        0.07
  J19                  JUNCTION     0.14     0.17     8.17     0  03:21        0.17
  J9                   JUNCTION     0.11     0.14    29.14     0  03:48        0.14
  J14                  JUNCTION     0.13     0.16    20.16     0  06:05        0.16
  J17                  JUNCTION     0.08     0.11    20.11     0  03:27        0.11
  J7                   JUNCTION     0.07     0.15    39.15     0  03:02        0.15
  J11                  JUNCTION     0.08     0.20    31.20     0  03:02        0.20
  J18                  JUNCTION     0.05     0.11    29.11     0  03:02        0.11
  Out_to_WWTP          OUTFALL      0.14     0.17     6.17     0  06:44        0.17
  T5                   STORAGE      1.97     2.94    29.94     0  04:38        2.94
  T4                   STORAGE      0.70     1.39    28.39     0  03:43        1.39
  T6                   STORAGE      1.35     2.70    33.70     0  03:45        2.70
  T3                   STORAGE      1.63     2.56    24.56     0  05:54        2.56
  T2                   STORAGE      0.62     1.32    22.32     0  03:25        1.32
  T1                   STORAGE      3.41     5.00    15.00     0  03:19        5.00
  
  
  *******************
  Node Inflow Summary
  *******************
  
  -------------------------------------------------------------------------------------------------
                                  Maximum  Maximum                  Lateral       Total        Flow
                                  Lateral    Total  Time of Max      Inflow      Inflow     Balance
                                   Inflow   Inflow   Occurrence      Volume      Volume       Error
  Node                 Type           CMS      CMS  days hr:min    10^6 ltr    10^6 ltr     Percent
  -------------------------------------------------------------------------------------------------
  J1                   JUNCTION     0.149    0.149     0  03:01        1.15        1.15       0.060
  J3                   JUNCTION     0.000    0.202     0  04:43           0        4.13       0.903
  CSO7                 JUNCTION     0.045    0.045     0  03:01       0.464       0.464       0.097
  J5                   JUNCTION     0.053    0.095     0  03:01       0.379       0.839       0.163
  CSO9                 JUNCTION     0.060    0.060     0  03:01       0.451       0.451       0.097
  J8                   JUNCTION     0.252    0.308     0  03:01        2.11        2.56       0.175
  CSO8                 JUNCTION     0.228    0.228     0  03:01        1.33        1.33       0.040
  J10                  JUNCTION     0.170    0.388     0  03:01        1.06        2.39       0.227
  J13                  JUNCTION     0.204    0.204     0  03:01        1.32        1.32      -0.215
  J15                  JUNCTION     0.000    0.612     0  03:01           0        7.69       1.120
  J16                  JUNCTION     0.293    0.293     0  03:01        1.79        1.79       0.025
  CSO10                JUNCTION     0.097    0.097     0  03:01       0.577       0.577       0.074
  J12                  JUNCTION     0.000    0.487     0  03:02           0         4.7       0.552
  J4                   JUNCTION     0.000    0.045     0  03:01           0       0.463       0.812
  J6                   JUNCTION     0.000    0.042     0  03:43           0       0.767       0.435
  J2                   JUNCTION     0.000    0.030     0  04:38           0       0.642       0.687
  J19                  JUNCTION     0.000    0.271     0  03:19           0        5.67       0.219
  J9                   JUNCTION     0.000    0.128     0  03:45           0        2.33       0.716
  J14                  JUNCTION     0.000    0.135     0  05:54           0        2.73       0.286
  J17                  JUNCTION     0.000    0.071     0  03:25           0        1.25       0.447
  J7                   JUNCTION     0.000    0.059     0  03:01           0       0.451       0.715
  J11                  JUNCTION     0.000    0.227     0  03:01           0        1.33       0.439
  J18                  JUNCTION     0.000    0.097     0  03:01           0       0.576       0.170
  Out_to_WWTP          OUTFALL      0.000    0.271     0  03:21           0        5.66       0.000
  T5                   STORAGE      0.000    0.147     0  03:01           0        1.15      28.646
  T4                   STORAGE      0.000    0.094     0  03:02           0       0.838       3.617
  T6                   STORAGE      0.000    0.302     0  03:02           0        2.56       5.636
  T3                   STORAGE      0.000    0.476     0  03:04           0        4.67      17.824
  T2                   STORAGE      0.000    0.201     0  03:01           0        1.32       2.240
  T1                   STORAGE      0.000    0.594     0  03:03           0        7.61      11.489
  
  
  **********************
  Node Surcharge Summary
  **********************
  
  No nodes were surcharged.
  
  
  *********************
  Node Flooding Summary
  *********************
  
  Flooding refers to all water that overflows a node, whether it ponds or not.
  --------------------------------------------------------------------------
                                                             Total   Maximum
                                 Maximum   Time of Max       Flood    Ponded
                        Hours       Rate    Occurrence      Volume     Depth
  Node                 Flooded       CMS   days hr:min    10^6 ltr    Meters
  --------------------------------------------------------------------------
  T1                      2.95     0.172      0  03:19       0.493     0.000
  
  
  **********************
  Storage Volume Summary
  **********************
  
  --------------------------------------------------------------------------------------------------
                         Average     Avg  Evap Exfil       Maximum     Max    Time of Max    Maximum
                          Volume    Pcnt  Pcnt  Pcnt        Volume    Pcnt     Occurrence    Outflow
  Storage Unit           1000 m3    Full  Loss  Loss       1000 m3    Full    days hr:min        CMS
  --------------------------------------------------------------------------------------------------
  T5                       0.197      39     0     0         0.294      59       0  04:38      0.030
  T4                       0.070      14     0     0         0.139      28       0  03:43      0.042
  T6                       0.162      27     0     0         0.324      54       0  03:45      0.128
  T3                       0.849      33     0     0         1.331      51       0  05:54      0.135
  T2                       0.124      12     0     0         0.263      26       0  03:25      0.071
  T1                       0.477      68     0     0         0.700     100       0  03:19      0.271
  
  
  ***********************
  Outfall Loading Summary
  ***********************
  
  -----------------------------------------------------------
                         Flow       Avg       Max       Total
                         Freq      Flow      Flow      Volume
  Outfall Node           Pcnt       CMS       CMS    10^6 ltr
  -----------------------------------------------------------
  Out_to_WWTP           99.01     0.203     0.271       5.662
  -----------------------------------------------------------
  System                99.01     0.203     0.271       5.662
  
  
  ********************
  Link Flow Summary
  ********************
  
  -----------------------------------------------------------------------------
                                 Maximum  Time of Max   Maximum    Max/    Max/
                                  |Flow|   Occurrence   |Veloc|    Full    Full
  Link                 Type          CMS  days hr:min     m/sec    Flow   Depth
  -----------------------------------------------------------------------------
  C1                   CONDUIT     0.030     0  04:40      0.91    0.01    0.10
  C6                   CONDUIT     0.043     0  03:03      1.21    0.68    0.50
  C2                   CONDUIT     0.042     0  03:45      1.12    0.05    0.19
  C9                   CONDUIT     0.057     0  03:02      1.01    0.19    0.33
  C16                  CONDUIT     0.221     0  03:02      1.39    0.02    0.10
  C3                   CONDUIT     0.135     0  05:55      1.86    0.05    0.15
  C19                  CONDUIT     0.071     0  03:27      0.92    0.02    0.18
  C11                  CONDUIT     0.202     0  04:45      1.70    0.01    0.10
  C20                  CONDUIT     0.290     0  03:01      1.82    0.01    0.10
  C22                  CONDUIT     0.095     0  03:02      1.07    0.04    0.23
  C12                  CONDUIT     0.128     0  03:48      1.27    0.01    0.09
  C17                  CONDUIT     0.380     0  03:01      2.17    0.02    0.10
  C10                  CONDUIT     0.302     0  03:02      1.66    0.03    0.56
  C13                  CONDUIT     0.476     0  03:04      1.53    0.03    0.55
  C18                  CONDUIT     0.201     0  03:01      1.72    0.01    0.35
  C23                  CONDUIT     0.594     0  03:03      1.26    0.07    0.59
  C4                   CONDUIT     0.147     0  03:01      1.98    0.04    0.56
  C7                   CONDUIT     0.094     0  03:02      1.43    0.02    0.55
  C14                  CONDUIT     0.271     0  03:21      2.08    0.02    0.09
  C5                   CONDUIT     0.045     0  03:01      1.22    0.76    0.71
  C8                   CONDUIT     0.059     0  03:01      1.26    0.74    0.57
  C15                  CONDUIT     0.227     0  03:01      2.49    0.72    0.55
  C21                  CONDUIT     0.097     0  03:01      1.60    0.55    0.42
  V4                   ORIFICE     0.042     0  03:43                      1.00
  V5                   ORIFICE     0.030     0  04:38                      1.00
  V1                   ORIFICE     0.271     0  03:19                      1.00
  V6                   ORIFICE     0.128     0  03:45                      1.00
  V3                   ORIFICE     0.135     0  05:54                      1.00
  V2                   ORIFICE     0.071     0  03:25                      1.00
  
  
  ***************************
  Flow Classification Summary
  ***************************
  
  -------------------------------------------------------------------------------------
                      Adjusted    ---------- Fraction of Time in Flow Class ---------- 
                       /Actual         Up    Down  Sub   Sup   Up    Down  Norm  Inlet 
  Conduit               Length    Dry  Dry   Dry   Crit  Crit  Crit  Crit  Ltd   Ctrl  
  -------------------------------------------------------------------------------------
  C1                      1.00   0.00  0.00  0.00  0.92  0.08  0.00  0.00  0.95  0.00
  C6                      1.00   0.00  0.00  0.00  0.01  0.99  0.00  0.00  0.00  0.00
  C2                      1.00   0.00  0.00  0.00  0.14  0.86  0.00  0.00  0.94  0.00
  C9                      1.00   0.00  0.00  0.00  1.00  0.00  0.00  0.00  1.00  0.00
  C16                     1.00   0.00  0.00  0.00  0.61  0.39  0.00  0.00  0.51  0.00
  C3                      1.00   0.00  0.00  0.00  0.05  0.94  0.00  0.00  0.07  0.00
  C19                     1.00   0.00  0.00  0.00  1.00  0.00  0.00  0.00  1.00  0.00
  C11                     1.00   0.00  0.00  0.00  0.26  0.73  0.00  0.00  1.00  0.00
  C20                     1.00   0.00  0.00  0.00  0.64  0.36  0.00  0.00  0.98  0.00
  C22                     1.00   0.00  0.00  0.00  0.97  0.03  0.00  0.00  1.00  0.00
  C12                     1.00   0.00  0.00  0.00  0.35  0.65  0.00  0.00  0.70  0.00
  C17                     1.00   0.00  0.00  0.00  0.49  0.51  0.00  0.00  0.97  0.00
  C10                     1.00   0.00  0.00  0.00  0.94  0.06  0.00  0.00  0.97  0.00
  C13                     1.00   0.00  0.00  0.00  0.87  0.13  0.00  0.00  0.91  0.00
  C18                     1.00   0.00  0.00  0.00  0.81  0.19  0.00  0.00  0.97  0.00
  C23                     1.00   0.00  0.00  0.00  0.90  0.10  0.00  0.00  0.94  0.00
  C4                      1.00   0.00  0.00  0.00  0.96  0.04  0.00  0.00  0.98  0.00
  C7                      1.00   0.00  0.00  0.00  0.91  0.09  0.00  0.00  0.96  0.00
  C14                     1.00   0.00  0.00  0.00  0.00  0.99  0.00  0.00  0.14  0.00
  C5                      1.00   0.00  0.00  0.00  0.88  0.12  0.00  0.00  0.98  0.00
  C8                      1.00   0.00  0.00  0.00  0.00  1.00  0.00  0.00  0.00  0.00
  C15                     1.00   0.00  0.00  0.00  0.00  1.00  0.00  0.00  0.00  0.00
  C21                     1.00   0.00  0.00  0.00  0.00  1.00  0.00  0.00  0.00  0.00
  
  
  *************************
  Conduit Surcharge Summary
  *************************
  
  ----------------------------------------------------------------------------
                                                           Hours        Hours 
                         --------- Hours Full --------   Above Full   Capacity
  Conduit                Both Ends  Upstream  Dnstream   Normal Flow   Limited
  ----------------------------------------------------------------------------
  C10                         0.01      0.01      3.45      0.01         0.01
  C13                         0.01      0.01      4.45      0.01         0.01
  C23                         0.01      0.01      5.60      0.01         0.01
  C4                          0.01      0.01      5.60      0.01         0.01
  C7                          0.01      0.01      2.46      0.01         0.01
  

  Analysis begun on:  Fri Sep  3 15:50:48 2021
  Analysis ended on:  Fri Sep  3 15:50:48 2021
  Total elapsed time: < 1 sec