
  EPA STORM WATER MANAGEMENT MODEL - VERSION 5.1 (Build 5.3.0.dev0)
  --------------------------------------------------------------

  
  *********************************************************
  NOTE: The summary statistics displayed in this report are
  based on results found at every computational time step,  
  not just on results from each reporting time step.
  *********************************************************
  
  ****************
  Analysis Options
  ****************
  Flow Units ............... CMS
  Process Models:
    Rainfall/Runoff ........ YES
    RDII ................... NO
    Snowmelt ............... NO
    Groundwater ............ NO
    Flow Routing ........... YES
    Ponding Allowed ........ YES
    Water Quality .......... NO
  Infiltration Method ...... HORTON
  Flow Routing Method ...... DYNWAVE
  Surcharge Method ......... EXTRAN
  Starting Date ............ 08/28/2015 08:00:00
  Ending Date .............. 08/28/2015 15:50:00
  Antecedent Dry Days ...... 0.0
  Report Time Step ......... 00:01:00
  Wet Time Step ............ 00:01:00
  Dry Time Step ............ 00:01:00
  Routing Time Step ........ 5.00 sec
  Variable Time Step ....... YES
  Maximum Trials ........... 8
  Number of Threads ........ 1
  Head Tolerance ........... 0.001500 m
  
  
  **************************        Volume         Depth
  Runoff Quantity Continuity     hectare-m            mm
  **************************     ---------       -------
  Total Precipitation ......         1.114         6.184
  Evaporation Loss .........         0.000         0.000
  Infiltration Loss ........         0.000         0.000
  Surface Runoff ...........         1.091         6.055
  Final Storage ............         0.023         0.129
  Continuity Error (%) .....        -0.007
  
  
  **************************        Volume        Volume
  Flow Routing Continuity        hectare-m      10^6 ltr
  **************************     ---------     ---------
  Dry Weather Inflow .......         0.396         3.955
  Wet Weather Inflow .......         1.091        10.911
  Groundwater Inflow .......         0.000         0.000
  RDII Inflow ..............         0.000         0.000
  External Inflow ..........         0.000         0.000
  External Outflow .........         0.591         5.912
  Flooding Loss ............         0.266         2.659
  Evaporation Loss .........         0.000         0.000
  Exfiltration Loss ........         0.000         0.000
  Initial Stored Volume ....         0.000         0.000
  Final Stored Volume ......         0.505         5.047
  Continuity Error (%) .....         8.398
  
  
  *************************
  Highest Continuity Errors
  *************************
  Node T5 (24.19%)
  Node T3 (16.61%)
  Node T1 (8.20%)
  Node T6 (7.23%)
  Node T4 (4.82%)
  
  
  ***************************
  Time-Step Critical Elements
  ***************************
  None
  
  
  ********************************
  Highest Flow Instability Indexes
  ********************************
  All links are stable.
  
  
  *************************
  Routing Time Step Summary
  *************************
  Minimum Time Step           :     4.50 sec
  Average Time Step           :     5.00 sec
  Maximum Time Step           :     5.00 sec
  Percent in Steady State     :     0.00
  Average Iterations per Step :     2.06
  Percent Not Converging      :     0.39
  
  
  ***************************
  Subcatchment Runoff Summary
  ***************************
  
  ------------------------------------------------------------------------------------------------------------------------------
                            Total      Total      Total      Total     Imperv       Perv      Total       Total     Peak  Runoff
                           Precip      Runon       Evap      Infil     Runoff     Runoff     Runoff      Runoff   Runoff   Coeff
  Subcatchment                 mm         mm         mm         mm         mm         mm         mm    10^6 ltr      CMS
  ------------------------------------------------------------------------------------------------------------------------------
  SC01                       6.18       0.00       0.00       0.00       6.10       0.00       6.10        2.01     0.45   0.986
  SC02                       6.18       0.00       0.00       0.00       6.09       0.00       6.09        1.39     0.31   0.985
  SC03                       6.18       0.00       0.00       0.00       6.12       0.00       6.12        1.10     0.26   0.989
  SC04                       6.18       0.00       0.00       0.00       5.99       0.00       5.99        0.41     0.08   0.969
  SC05                       6.18       0.00       0.00       0.00       6.09       0.00       6.09        0.95     0.21   0.985
  SC06                       6.18       0.00       0.00       0.00       5.94       0.00       5.94        1.93     0.37   0.961
  SC07                       6.18       0.00       0.00       0.00       5.99       0.00       5.99        0.28     0.06   0.969
  SC08                       6.18       0.00       0.00       0.00       6.07       0.00       6.07        1.70     0.37   0.981
  SC09                       6.18       0.00       0.00       0.00       6.04       0.00       6.04        0.42     0.09   0.977
  SC010                      6.18       0.00       0.00       0.00       6.07       0.00       6.07        0.71     0.15   0.982
  
  
  ******************
  Node Depth Summary
  ******************
  
  ---------------------------------------------------------------------------------
                                 Average  Maximum  Maximum  Time of Max    Reported
                                   Depth    Depth      HGL   Occurrence   Max Depth
  Node                 Type       Meters   Meters   Meters  days hr:min      Meters
  ---------------------------------------------------------------------------------
  J1                   JUNCTION     0.07     0.16    34.16     0  03:01        0.16
  J3                   JUNCTION     0.13     0.16    18.16     0  04:28        0.16
  CSO7                 JUNCTION     0.11     1.20    35.20     0  03:02        0.69
  J5                   JUNCTION     0.06     0.13    32.13     0  03:02        0.13
  CSO9                 JUNCTION     0.12     0.84    40.84     0  03:01        0.84
  J8                   JUNCTION     0.11     0.23    36.23     0  03:01        0.23
  CSO8                 JUNCTION     0.14     0.97    32.97     0  03:01        0.97
  J10                  JUNCTION     0.09     0.24    29.24     0  03:01        0.24
  J13                  JUNCTION     0.06     0.15    29.15     0  03:01        0.15
  J15                  JUNCTION     0.19     0.32    15.32     0  03:02        0.32
  J16                  JUNCTION     0.07     0.17    30.17     0  03:01        0.17
  CSO10                JUNCTION     0.12     0.36    30.36     0  03:01        0.36
  J12                  JUNCTION     0.15     0.29    26.29     0  03:03        0.29
  J4                   JUNCTION     0.13     1.09    34.09     0  03:02        0.46
  J6                   JUNCTION     0.08     0.10    25.10     0  03:40        0.10
  J2                   JUNCTION     0.06     0.08    25.08     0  03:59        0.08
  J19                  JUNCTION     0.14     0.17     8.17     0  02:46        0.17
  J9                   JUNCTION     0.12     0.16    29.16     0  03:43        0.16
  J14                  JUNCTION     0.14     0.18    20.18     0  06:12        0.18
  J17                  JUNCTION     0.09     0.12    20.12     0  03:25        0.12
  J7                   JUNCTION     0.08     0.19    39.19     0  03:01        0.19
  J11                  JUNCTION     0.10     0.26    31.26     0  03:01        0.26
  J18                  JUNCTION     0.05     0.14    29.14     0  03:02        0.14
  Out_to_WWTP          OUTFALL      0.14     0.17     6.17     0  02:45        0.17
  T5                   STORAGE      2.96     4.50    31.50     0  03:57        4.50
  T4                   STORAGE      1.19     2.44    29.44     0  03:39        2.44
  T6                   STORAGE      2.39     4.85    35.85     0  03:41        4.85
  T3                   STORAGE      2.59     4.04    26.04     0  05:54        4.04
  T2                   STORAGE      1.09     2.30    23.30     0  03:23        2.30
  T1                   STORAGE      3.65     5.00    15.00     0  02:45        5.00
  
  
  *******************
  Node Inflow Summary
  *******************
  
  -------------------------------------------------------------------------------------------------
                                  Maximum  Maximum                  Lateral       Total        Flow
                                  Lateral    Total  Time of Max      Inflow      Inflow     Balance
                                   Inflow   Inflow   Occurrence      Volume      Volume       Error
  Node                 Type           CMS      CMS  days hr:min    10^6 ltr    10^6 ltr     Percent
  -------------------------------------------------------------------------------------------------
  J1                   JUNCTION     0.234    0.234     0  03:01        1.51        1.51       0.033
  J3                   JUNCTION     0.000    0.257     0  04:25           0        5.19       0.845
  CSO7                 JUNCTION     0.069    0.069     0  03:01       0.575       0.575       0.076
  J5                   JUNCTION     0.088    0.150     0  03:02       0.541        1.11       0.113
  CSO9                 JUNCTION     0.095    0.095     0  03:01       0.613       0.613       0.075
  J8                   JUNCTION     0.413    0.504     0  03:01        2.88        3.48       0.119
  CSO8                 JUNCTION     0.376    0.376     0  03:01        1.99        1.99       0.026
  J10                  JUNCTION     0.271    0.634     0  03:01        1.49        3.47       0.143
  J13                  JUNCTION     0.327    0.327     0  03:01        1.85        1.85      -0.237
  J15                  JUNCTION     0.000    0.922     0  03:01           0        10.2       1.005
  J16                  JUNCTION     0.473    0.473     0  03:01        2.57        2.57      -0.011
  CSO10                JUNCTION     0.160    0.160     0  03:01       0.852       0.852       0.049
  J12                  JUNCTION     0.000    0.769     0  03:01           0        6.51       0.473
  J4                   JUNCTION     0.000    0.069     0  03:01           0       0.575       0.591
  J6                   JUNCTION     0.000    0.056     0  03:39           0       0.991       0.405
  J2                   JUNCTION     0.000    0.037     0  03:58           0       0.782       0.653
  J19                  JUNCTION     0.000    0.271     0  02:45           0        5.92       0.214
  J9                   JUNCTION     0.000    0.172     0  03:41           0        3.07       0.683
  J14                  JUNCTION     0.000    0.170     0  05:54           0        3.43       0.269
  J17                  JUNCTION     0.000    0.095     0  03:23           0        1.66       0.466
  J7                   JUNCTION     0.000    0.095     0  03:01           0       0.613       0.519
  J11                  JUNCTION     0.000    0.376     0  03:01           0        1.99       0.304
  J18                  JUNCTION     0.000    0.158     0  03:01           0       0.852       0.085
  Out_to_WWTP          OUTFALL      0.000    0.271     0  02:47           0        5.91       0.000
  T5                   STORAGE      0.000    0.231     0  03:01           0        1.51      31.906
  T4                   STORAGE      0.000    0.147     0  03:02           0        1.11       5.069
  T6                   STORAGE      0.000    0.496     0  03:01           0        3.48       7.790
  T3                   STORAGE      0.000    0.753     0  03:03           0        6.48      19.924
  T2                   STORAGE      0.000    0.323     0  03:01           0        1.86       4.950
  T1                   STORAGE      0.000    0.895     0  03:02           0        10.1       8.936
  
  
  **********************
  Node Surcharge Summary
  **********************
  
  Surcharging occurs when water rises above the top of the highest conduit.
  ---------------------------------------------------------------------
                                               Max. Height   Min. Depth
                                   Hours       Above Crown    Below Rim
  Node                 Type      Surcharged         Meters       Meters
  ---------------------------------------------------------------------
  CSO7                 JUNCTION        0.16          0.945        0.000
  CSO9                 JUNCTION        0.22          0.522        1.160
  CSO8                 JUNCTION        0.15          0.516        1.031
  J4                   JUNCTION        0.13          0.787        0.913
  
  
  *********************
  Node Flooding Summary
  *********************
  
  Flooding refers to all water that overflows a node, whether it ponds or not.
  --------------------------------------------------------------------------
                                                             Total   Maximum
                                 Maximum   Time of Max       Flood    Ponded
                        Hours       Rate    Occurrence      Volume     Depth
  Node                 Flooded       CMS   days hr:min    10^6 ltr    Meters
  --------------------------------------------------------------------------
  CSO7                    0.01     0.001      0  03:02       0.000     0.000
  T1                      5.08     0.624      0  03:02       2.659     0.000
  
  
  **********************
  Storage Volume Summary
  **********************
  
  --------------------------------------------------------------------------------------------------
                         Average     Avg  Evap Exfil       Maximum     Max    Time of Max    Maximum
                          Volume    Pcnt  Pcnt  Pcnt        Volume    Pcnt     Occurrence    Outflow
  Storage Unit           1000 m3    Full  Loss  Loss       1000 m3    Full    days hr:min        CMS
  --------------------------------------------------------------------------------------------------
  T5                       0.296      59     0     0         0.450      90       0  03:57      0.037
  T4                       0.119      24     0     0         0.244      49       0  03:39      0.056
  T6                       0.286      48     0     0         0.582      97       0  03:41      0.172
  T3                       1.349      52     0     0         2.099      81       0  05:54      0.170
  T2                       0.219      22     0     0         0.460      46       0  03:23      0.095
  T1                       0.510      73     0     0         0.700     100       0  02:45      0.271
  
  
  ***********************
  Outfall Loading Summary
  ***********************
  
  -----------------------------------------------------------
                         Flow       Avg       Max       Total
                         Freq      Flow      Flow      Volume
  Outfall Node           Pcnt       CMS       CMS    10^6 ltr
  -----------------------------------------------------------
  Out_to_WWTP           99.01     0.212     0.271       5.912
  -----------------------------------------------------------
  System                99.01     0.212     0.271       5.912
  
  
  ********************
  Link Flow Summary
  ********************
  
  -----------------------------------------------------------------------------
                                 Maximum  Time of Max   Maximum    Max/    Max/
                                  |Flow|   Occurrence   |Veloc|    Full    Full
  Link                 Type          CMS  days hr:min     m/sec    Flow   Depth
  -----------------------------------------------------------------------------
  C1                   CONDUIT     0.037     0  04:00      0.91    0.01    0.12
  C6                   CONDUIT     0.067     0  03:02      1.29    1.06    0.72
  C2                   CONDUIT     0.056     0  03:40      1.24    0.06    0.22
  C9                   CONDUIT     0.092     0  03:01      1.16    0.31    0.42
  C16                  CONDUIT     0.366     0  03:01      1.62    0.04    0.12
  C3                   CONDUIT     0.170     0  05:55      2.00    0.07    0.17
  C19                  CONDUIT     0.095     0  03:25      1.02    0.03    0.22
  C11                  CONDUIT     0.257     0  04:28      1.81    0.01    0.12
  C20                  CONDUIT     0.469     0  03:01      2.15    0.01    0.12
  C22                  CONDUIT     0.156     0  03:02      1.30    0.07    0.29
  C12                  CONDUIT     0.172     0  03:43      1.41    0.01    0.11
  C17                  CONDUIT     0.622     0  03:01      2.55    0.03    0.13
  C10                  CONDUIT     0.496     0  03:01      1.66    0.05    0.58
  C13                  CONDUIT     0.753     0  03:03      1.53    0.04    0.57
  C18                  CONDUIT     0.323     0  03:01      1.72    0.01    0.54
  C23                  CONDUIT     0.895     0  03:02      1.26    0.10    0.61
  C4                   CONDUIT     0.231     0  03:01      1.98    0.06    0.58
  C7                   CONDUIT     0.147     0  03:02      1.43    0.04    0.57
  C14                  CONDUIT     0.271     0  02:47      2.08    0.02    0.09
  C5                   CONDUIT     0.069     0  03:01      1.35    1.18    1.00
  C8                   CONDUIT     0.095     0  03:01      1.40    1.20    0.80
  C15                  CONDUIT     0.376     0  03:01      2.77    1.19    0.79
  C21                  CONDUIT     0.158     0  03:01      1.76    0.91    0.57
  V4                   ORIFICE     0.056     0  03:39                      1.00
  V5                   ORIFICE     0.037     0  03:58                      1.00
  V1                   ORIFICE     0.271     0  02:45                      1.00
  V6                   ORIFICE     0.172     0  03:41                      1.00
  V3                   ORIFICE     0.170     0  05:54                      1.00
  V2                   ORIFICE     0.095     0  03:23                      1.00
  
  
  ***************************
  Flow Classification Summary
  ***************************
  
  -------------------------------------------------------------------------------------
                      Adjusted    ---------- Fraction of Time in Flow Class ---------- 
                       /Actual         Up    Down  Sub   Sup   Up    Down  Norm  Inlet 
  Conduit               Length    Dry  Dry   Dry   Crit  Crit  Crit  Crit  Ltd   Ctrl  
  -------------------------------------------------------------------------------------
  C1                      1.00   0.00  0.00  0.00  0.92  0.08  0.00  0.00  0.95  0.00
  C6                      1.00   0.00  0.00  0.00  0.05  0.95  0.00  0.00  0.00  0.00
  C2                      1.00   0.00  0.00  0.00  0.11  0.89  0.00  0.00  0.94  0.00
  C9                      1.00   0.00  0.00  0.00  1.00  0.00  0.00  0.00  1.00  0.00
  C16                     1.00   0.00  0.00  0.00  0.57  0.43  0.00  0.00  0.45  0.00
  C3                      1.00   0.00  0.00  0.00  0.05  0.94  0.00  0.00  0.07  0.00
  C19                     1.00   0.00  0.00  0.00  1.00  0.00  0.00  0.00  1.00  0.00
  C11                     1.00   0.00  0.00  0.00  0.30  0.70  0.00  0.00  1.00  0.00
  C20                     1.00   0.00  0.00  0.00  0.63  0.37  0.00  0.00  0.98  0.00
  C22                     1.00   0.00  0.00  0.00  0.96  0.04  0.00  0.00  1.00  0.00
  C12                     1.00   0.00  0.00  0.00  0.36  0.64  0.00  0.00  0.57  0.00
  C17                     1.00   0.00  0.00  0.00  0.51  0.49  0.00  0.00  0.97  0.00
  C10                     1.00   0.00  0.00  0.00  0.94  0.06  0.00  0.00  0.97  0.00
  C13                     1.00   0.00  0.00  0.00  0.87  0.13  0.00  0.00  0.91  0.00
  C18                     1.00   0.00  0.00  0.00  0.82  0.18  0.00  0.00  0.97  0.00
  C23                     1.00   0.00  0.00  0.00  0.90  0.10  0.00  0.00  0.94  0.00
  C4                      1.00   0.00  0.00  0.00  0.96  0.04  0.00  0.00  0.98  0.00
  C7                      1.00   0.00  0.00  0.00  0.91  0.09  0.00  0.00  0.96  0.00
  C14                     1.00   0.00  0.00  0.00  0.00  0.99  0.00  0.00  0.00  0.00
  C5                      1.00   0.00  0.00  0.00  0.89  0.11  0.00  0.00  0.95  0.00
  C8                      1.00   0.00  0.00  0.00  0.08  0.92  0.00  0.00  0.00  0.00
  C15                     1.00   0.00  0.00  0.00  0.00  1.00  0.00  0.00  0.00  0.00
  C21                     1.00   0.00  0.00  0.00  0.00  1.00  0.00  0.00  0.00  0.00
  
  
  *************************
  Conduit Surcharge Summary
  *************************
  
  ----------------------------------------------------------------------------
                                                           Hours        Hours 
                         --------- Hours Full --------   Above Full   Capacity
  Conduit                Both Ends  Upstream  Dnstream   Normal Flow   Limited
  ----------------------------------------------------------------------------
  C6                          0.01      0.13      0.01      0.02         0.01
  C10                         0.01      0.01      5.23      0.01         0.01
  C13                         0.01      0.01      5.04      0.01         0.01
  C18                         0.01      0.01      1.18      0.01         0.01
  C23                         0.01      0.01      5.89      0.01         0.01
  C4                          0.01      0.01      5.90      0.01         0.01
  C7                          0.01      0.01      4.41      0.01         0.01
  C5                          0.16      0.16      0.30      0.26         0.13
  C8                          0.01      0.22      0.01      0.24         0.01
  C15                         0.01      0.15      0.01      0.25         0.01
  

  Analysis begun on:  Fri Sep  3 15:54:40 2021
  Analysis ended on:  Fri Sep  3 15:54:40 2021
  Total elapsed time: < 1 sec