
  EPA STORM WATER MANAGEMENT MODEL - VERSION 5.1 (Build 5.3.0.dev0)
  --------------------------------------------------------------

  
  *********************************************************
  NOTE: The summary statistics displayed in this report are
  based on results found at every computational time step,  
  not just on results from each reporting time step.
  *********************************************************
  
  ****************
  Analysis Options
  ****************
  Flow Units ............... CMS
  Process Models:
    Rainfall/Runoff ........ YES
    RDII ................... NO
    Snowmelt ............... NO
    Groundwater ............ NO
    Flow Routing ........... YES
    Ponding Allowed ........ YES
    Water Quality .......... NO
  Infiltration Method ...... HORTON
  Flow Routing Method ...... DYNWAVE
  Surcharge Method ......... EXTRAN
  Starting Date ............ 08/28/2015 08:00:00
  Ending Date .............. 08/28/2015 15:50:00
  Antecedent Dry Days ...... 0.0
  Report Time Step ......... 00:01:00
  Wet Time Step ............ 00:01:00
  Dry Time Step ............ 00:01:00
  Routing Time Step ........ 5.00 sec
  Variable Time Step ....... YES
  Maximum Trials ........... 8
  Number of Threads ........ 1
  Head Tolerance ........... 0.001500 m
  
  
  **************************        Volume         Depth
  Runoff Quantity Continuity     hectare-m            mm
  **************************     ---------       -------
  Total Precipitation ......         0.680         3.775
  Evaporation Loss .........         0.000         0.000
  Infiltration Loss ........         0.000         0.000
  Surface Runoff ...........         0.658         3.650
  Final Storage ............         0.023         0.126
  Continuity Error (%) .....        -0.008
  
  
  **************************        Volume        Volume
  Flow Routing Continuity        hectare-m      10^6 ltr
  **************************     ---------     ---------
  Dry Weather Inflow .......         0.396         3.955
  Wet Weather Inflow .......         0.658         6.577
  Groundwater Inflow .......         0.000         0.000
  RDII Inflow ..............         0.000         0.000
  External Inflow ..........         0.000         0.000
  External Outflow .........         0.565         5.650
  Flooding Loss ............         0.044         0.444
  Evaporation Loss .........         0.000         0.000
  Exfiltration Loss ........         0.000         0.000
  Initial Stored Volume ....         0.000         0.000
  Final Stored Volume ......         0.372         3.724
  Continuity Error (%) .....         6.776
  
  
  *************************
  Highest Continuity Errors
  *************************
  Node T5 (22.21%)
  Node T3 (15.08%)
  Node T1 (10.35%)
  Node T6 (5.29%)
  Node T4 (3.46%)
  
  
  ***************************
  Time-Step Critical Elements
  ***************************
  None
  
  
  ********************************
  Highest Flow Instability Indexes
  ********************************
  All links are stable.
  
  
  *************************
  Routing Time Step Summary
  *************************
  Minimum Time Step           :     4.50 sec
  Average Time Step           :     5.00 sec
  Maximum Time Step           :     5.00 sec
  Percent in Steady State     :     0.00
  Average Iterations per Step :     2.00
  Percent Not Converging      :     0.00
  
  
  ***************************
  Subcatchment Runoff Summary
  ***************************
  
  ------------------------------------------------------------------------------------------------------------------------------
                            Total      Total      Total      Total     Imperv       Perv      Total       Total     Peak  Runoff
                           Precip      Runon       Evap      Infil     Runoff     Runoff     Runoff      Runoff   Runoff   Coeff
  Subcatchment                 mm         mm         mm         mm         mm         mm         mm    10^6 ltr      CMS
  ------------------------------------------------------------------------------------------------------------------------------
  SC01                       3.78       0.00       0.00       0.00       3.69       0.00       3.69        1.22     0.27   0.978
  SC02                       3.78       0.00       0.00       0.00       3.69       0.00       3.69        0.84     0.18   0.976
  SC03                       3.78       0.00       0.00       0.00       3.71       0.00       3.71        0.67     0.15   0.982
  SC04                       3.78       0.00       0.00       0.00       3.59       0.00       3.59        0.25     0.05   0.951
  SC05                       3.78       0.00       0.00       0.00       3.68       0.00       3.68        0.57     0.12   0.976
  SC06                       3.78       0.00       0.00       0.00       3.54       0.00       3.54        1.15     0.21   0.939
  SC07                       3.78       0.00       0.00       0.00       3.59       0.00       3.59        0.17     0.03   0.951
  SC08                       3.78       0.00       0.00       0.00       3.66       0.00       3.66        1.03     0.21   0.970
  SC09                       3.78       0.00       0.00       0.00       3.64       0.00       3.64        0.25     0.05   0.964
  SC010                      3.78       0.00       0.00       0.00       3.67       0.00       3.67        0.43     0.09   0.971
  
  
  ******************
  Node Depth Summary
  ******************
  
  ---------------------------------------------------------------------------------
                                 Average  Maximum  Maximum  Time of Max    Reported
                                   Depth    Depth      HGL   Occurrence   Max Depth
  Node                 Type       Meters   Meters   Meters  days hr:min      Meters
  ---------------------------------------------------------------------------------
  J1                   JUNCTION     0.07     0.13    34.13     0  03:01        0.13
  J3                   JUNCTION     0.11     0.14    18.14     0  04:46        0.14
  CSO7                 JUNCTION     0.09     0.17    34.17     0  03:01        0.17
  J5                   JUNCTION     0.06     0.10    32.10     0  03:02        0.10
  CSO9                 JUNCTION     0.09     0.21    40.21     0  03:01        0.21
  J8                   JUNCTION     0.10     0.18    36.18     0  03:02        0.18
  CSO8                 JUNCTION     0.11     0.29    32.29     0  03:01        0.29
  J10                  JUNCTION     0.08     0.19    29.19     0  03:01        0.19
  J13                  JUNCTION     0.06     0.12    29.12     0  03:01        0.12
  J15                  JUNCTION     0.17     0.26    15.26     0  03:03        0.26
  J16                  JUNCTION     0.06     0.13    30.13     0  03:01        0.13
  CSO10                JUNCTION     0.10     0.25    30.25     0  03:01        0.25
  J12                  JUNCTION     0.13     0.23    26.23     0  03:04        0.23
  J4                   JUNCTION     0.11     0.20    33.20     0  03:03        0.20
  J6                   JUNCTION     0.07     0.09    25.09     0  03:45        0.09
  J2                   JUNCTION     0.06     0.07    25.07     0  04:42        0.07
  J19                  JUNCTION     0.14     0.17     8.17     0  03:23        0.17
  J9                   JUNCTION     0.11     0.14    29.14     0  03:48        0.14
  J14                  JUNCTION     0.13     0.16    20.16     0  06:05        0.16
  J17                  JUNCTION     0.08     0.11    20.11     0  03:27        0.11
  J7                   JUNCTION     0.07     0.15    39.15     0  03:02        0.15
  J11                  JUNCTION     0.08     0.20    31.20     0  03:02        0.20
  J18                  JUNCTION     0.05     0.11    29.11     0  03:02        0.11
  Out_to_WWTP          OUTFALL      0.14     0.17     6.17     0  06:39        0.17
  T5                   STORAGE      1.94     2.91    29.91     0  04:40        2.91
  T4                   STORAGE      0.69     1.36    28.36     0  03:43        1.36
  T6                   STORAGE      1.33     2.65    33.65     0  03:45        2.65
  T3                   STORAGE      1.61     2.52    24.52     0  05:54        2.52
  T2                   STORAGE      0.61     1.29    22.29     0  03:25        1.29
  T1                   STORAGE      3.40     5.00    15.00     0  03:22        5.00
  
  
  *******************
  Node Inflow Summary
  *******************
  
  -------------------------------------------------------------------------------------------------
                                  Maximum  Maximum                  Lateral       Total        Flow
                                  Lateral    Total  Time of Max      Inflow      Inflow     Balance
                                   Inflow   Inflow   Occurrence      Volume      Volume       Error
  Node                 Type           CMS      CMS  days hr:min    10^6 ltr    10^6 ltr     Percent
  -------------------------------------------------------------------------------------------------
  J1                   JUNCTION     0.147    0.147     0  03:01        1.14        1.14       0.061
  J3                   JUNCTION     0.000    0.201     0  04:44           0         4.1       0.905
  CSO7                 JUNCTION     0.044    0.044     0  03:01       0.461       0.461       0.098
  J5                   JUNCTION     0.053    0.094     0  03:01       0.375       0.832       0.165
  CSO9                 JUNCTION     0.059    0.059     0  03:01       0.447       0.447       0.098
  J8                   JUNCTION     0.248    0.303     0  03:01        2.09        2.54       0.177
  CSO8                 JUNCTION     0.224    0.224     0  03:01        1.32        1.32       0.041
  J10                  JUNCTION     0.167    0.382     0  03:01        1.05        2.36       0.230
  J13                  JUNCTION     0.200    0.200     0  03:01        1.31        1.31      -0.213
  J15                  JUNCTION     0.000    0.604     0  03:01           0        7.63       1.124
  J16                  JUNCTION     0.289    0.289     0  03:01        1.77        1.77       0.026
  CSO10                JUNCTION     0.096    0.096     0  03:01        0.57        0.57       0.075
  J12                  JUNCTION     0.000    0.480     0  03:02           0        4.65       0.555
  J4                   JUNCTION     0.000    0.044     0  03:01           0       0.461       0.817
  J6                   JUNCTION     0.000    0.041     0  03:43           0       0.761       0.436
  J2                   JUNCTION     0.000    0.030     0  04:40           0       0.638       0.688
  J19                  JUNCTION     0.000    0.271     0  03:22           0        5.66       0.219
  J9                   JUNCTION     0.000    0.127     0  03:45           0        2.31       0.717
  J14                  JUNCTION     0.000    0.134     0  05:54           0        2.71       0.287
  J17                  JUNCTION     0.000    0.071     0  03:25           0        1.23       0.446
  J7                   JUNCTION     0.000    0.058     0  03:01           0       0.447       0.722
  J11                  JUNCTION     0.000    0.223     0  03:01           0        1.32       0.444
  J18                  JUNCTION     0.000    0.095     0  03:01           0       0.569       0.174
  Out_to_WWTP          OUTFALL      0.000    0.271     0  03:23           0        5.65       0.000
  T5                   STORAGE      0.000    0.145     0  03:01           0        1.14      28.558
  T4                   STORAGE      0.000    0.092     0  03:02           0       0.831       3.582
  T6                   STORAGE      0.000    0.297     0  03:02           0        2.53       5.581
  T3                   STORAGE      0.000    0.469     0  03:04           0        4.62      17.764
  T2                   STORAGE      0.000    0.198     0  03:01           0        1.31       2.184
  T1                   STORAGE      0.000    0.586     0  03:03           0        7.54      11.542
  
  
  **********************
  Node Surcharge Summary
  **********************
  
  No nodes were surcharged.
  
  
  *********************
  Node Flooding Summary
  *********************
  
  Flooding refers to all water that overflows a node, whether it ponds or not.
  --------------------------------------------------------------------------
                                                             Total   Maximum
                                 Maximum   Time of Max       Flood    Ponded
                        Hours       Rate    Occurrence      Volume     Depth
  Node                 Flooded       CMS   days hr:min    10^6 ltr    Meters
  --------------------------------------------------------------------------
  T1                      2.84     0.152      0  03:22       0.444     0.000
  
  
  **********************
  Storage Volume Summary
  **********************
  
  --------------------------------------------------------------------------------------------------
                         Average     Avg  Evap Exfil       Maximum     Max    Time of Max    Maximum
                          Volume    Pcnt  Pcnt  Pcnt        Volume    Pcnt     Occurrence    Outflow
  Storage Unit           1000 m3    Full  Loss  Loss       1000 m3    Full    days hr:min        CMS
  --------------------------------------------------------------------------------------------------
  T5                       0.194      39     0     0         0.291      58       0  04:40      0.030
  T4                       0.069      14     0     0         0.136      27       0  03:43      0.041
  T6                       0.159      27     0     0         0.318      53       0  03:45      0.127
  T3                       0.837      32     0     0         1.312      50       0  05:54      0.134
  T2                       0.122      12     0     0         0.259      26       0  03:25      0.071
  T1                       0.476      68     0     0         0.700     100       0  03:22      0.271
  
  
  ***********************
  Outfall Loading Summary
  ***********************
  
  -----------------------------------------------------------
                         Flow       Avg       Max       Total
                         Freq      Flow      Flow      Volume
  Outfall Node           Pcnt       CMS       CMS    10^6 ltr
  -----------------------------------------------------------
  Out_to_WWTP           99.01     0.202     0.271       5.650
  -----------------------------------------------------------
  System                99.01     0.202     0.271       5.650
  
  
  ********************
  Link Flow Summary
  ********************
  
  -----------------------------------------------------------------------------
                                 Maximum  Time of Max   Maximum    Max/    Max/
                                  |Flow|   Occurrence   |Veloc|    Full    Full
  Link                 Type          CMS  days hr:min     m/sec    Flow   Depth
  -----------------------------------------------------------------------------
  C1                   CONDUIT     0.030     0  04:42      0.91    0.01    0.10
  C6                   CONDUIT     0.042     0  03:03      1.20    0.67    0.50
  C2                   CONDUIT     0.041     0  03:45      1.12    0.05    0.19
  C9                   CONDUIT     0.056     0  03:02      1.00    0.19    0.33
  C16                  CONDUIT     0.217     0  03:02      1.38    0.02    0.10
  C3                   CONDUIT     0.134     0  05:55      1.85    0.05    0.15
  C19                  CONDUIT     0.071     0  03:27      0.91    0.02    0.18
  C11                  CONDUIT     0.201     0  04:46      1.69    0.01    0.10
  C20                  CONDUIT     0.285     0  03:01      1.80    0.01    0.10
  C22                  CONDUIT     0.093     0  03:02      1.06    0.04    0.23
  C12                  CONDUIT     0.127     0  03:48      1.26    0.01    0.09
  C17                  CONDUIT     0.374     0  03:01      2.16    0.02    0.10
  C10                  CONDUIT     0.297     0  03:02      1.66    0.03    0.56
  C13                  CONDUIT     0.469     0  03:04      1.53    0.03    0.55
  C18                  CONDUIT     0.198     0  03:01      1.72    0.01    0.34
  C23                  CONDUIT     0.586     0  03:03      1.26    0.06    0.59
  C4                   CONDUIT     0.145     0  03:01      1.98    0.04    0.56
  C7                   CONDUIT     0.092     0  03:02      1.43    0.02    0.55
  C14                  CONDUIT     0.271     0  03:23      2.08    0.02    0.09
  C5                   CONDUIT     0.044     0  03:01      1.22    0.75    0.70
  C8                   CONDUIT     0.058     0  03:01      1.26    0.73    0.56
  C15                  CONDUIT     0.223     0  03:01      2.48    0.71    0.55
  C21                  CONDUIT     0.095     0  03:01      1.60    0.54    0.41
  V4                   ORIFICE     0.041     0  03:43                      1.00
  V5                   ORIFICE     0.030     0  04:40                      1.00
  V1                   ORIFICE     0.271     0  03:22                      1.00
  V6                   ORIFICE     0.127     0  03:45                      1.00
  V3                   ORIFICE     0.134     0  05:54                      1.00
  V2                   ORIFICE     0.071     0  03:25                      1.00
  
  
  ***************************
  Flow Classification Summary
  ***************************
  
  -------------------------------------------------------------------------------------
                      Adjusted    ---------- Fraction of Time in Flow Class ---------- 
                       /Actual         Up    Down  Sub   Sup   Up    Down  Norm  Inlet 
  Conduit               Length    Dry  Dry   Dry   Crit  Crit  Crit  Crit  Ltd   Ctrl  
  -------------------------------------------------------------------------------------
  C1                      1.00   0.00  0.00  0.00  0.92  0.08  0.00  0.00  0.95  0.00
  C6                      1.00   0.00  0.00  0.00  0.01  0.99  0.00  0.00  0.00  0.00
  C2                      1.00   0.00  0.00  0.00  0.14  0.86  0.00  0.00  0.94  0.00
  C9                      1.00   0.00  0.00  0.00  1.00  0.00  0.00  0.00  1.00  0.00
  C16                     1.00   0.00  0.00  0.00  0.61  0.39  0.00  0.00  0.51  0.00
  C3                      1.00   0.00  0.00  0.00  0.05  0.94  0.00  0.00  0.07  0.00
  C19                     1.00   0.00  0.00  0.00  1.00  0.00  0.00  0.00  1.00  0.00
  C11                     1.00   0.00  0.00  0.00  0.26  0.74  0.00  0.00  1.00  0.00
  C20                     1.00   0.00  0.00  0.00  0.64  0.36  0.00  0.00  0.98  0.00
  C22                     1.00   0.00  0.00  0.00  0.97  0.03  0.00  0.00  1.00  0.00
  C12                     1.00   0.00  0.00  0.00  0.35  0.65  0.00  0.00  0.71  0.00
  C17                     1.00   0.00  0.00  0.00  0.49  0.51  0.00  0.00  0.97  0.00
  C10                     1.00   0.00  0.00  0.00  0.94  0.06  0.00  0.00  0.97  0.00
  C13                     1.00   0.00  0.00  0.00  0.87  0.13  0.00  0.00  0.91  0.00
  C18                     1.00   0.00  0.00  0.00  0.81  0.19  0.00  0.00  0.97  0.00
  C23                     1.00   0.00  0.00  0.00  0.90  0.10  0.00  0.00  0.94  0.00
  C4                      1.00   0.00  0.00  0.00  0.96  0.04  0.00  0.00  0.98  0.00
  C7                      1.00   0.00  0.00  0.00  0.91  0.09  0.00  0.00  0.96  0.00
  C14                     1.00   0.00  0.00  0.00  0.00  0.99  0.00  0.00  0.15  0.00
  C5                      1.00   0.00  0.00  0.00  0.88  0.12  0.00  0.00  0.98  0.00
  C8                      1.00   0.00  0.00  0.00  0.00  1.00  0.00  0.00  0.00  0.00
  C15                     1.00   0.00  0.00  0.00  0.00  1.00  0.00  0.00  0.00  0.00
  C21                     1.00   0.00  0.00  0.00  0.00  1.00  0.00  0.00  0.00  0.00
  
  
  *************************
  Conduit Surcharge Summary
  *************************
  
  ----------------------------------------------------------------------------
                                                           Hours        Hours 
                         --------- Hours Full --------   Above Full   Capacity
  Conduit                Both Ends  Upstream  Dnstream   Normal Flow   Limited
  ----------------------------------------------------------------------------
  C10                         0.01      0.01      3.39      0.01         0.01
  C13                         0.01      0.01      4.41      0.01         0.01
  C23                         0.01      0.01      5.59      0.01         0.01
  C4                          0.01      0.01      5.58      0.01         0.01
  C7                          0.01      0.01      2.39      0.01         0.01
  

  Analysis begun on:  Fri Sep  3 15:46:55 2021
  Analysis ended on:  Fri Sep  3 15:46:55 2021
  Total elapsed time: < 1 sec