
  EPA STORM WATER MANAGEMENT MODEL - VERSION 5.1 (Build 5.3.0.dev0)
  --------------------------------------------------------------

  WARNING 04: minimum elevation drop used for Conduit WS02004404WS02004405
  WARNING 03: negative offset ignored for Link YS02001904YS02001907
  
  *********************************************************
  NOTE: The summary statistics displayed in this report are
  based on results found at every computational time step,  
  not just on results from each reporting time step.
  *********************************************************
  
  ****************
  Analysis Options
  ****************
  Flow Units ............... LPS
  Process Models:
    Rainfall/Runoff ........ YES
    RDII ................... NO
    Snowmelt ............... NO
    Groundwater ............ NO
    Flow Routing ........... YES
    Ponding Allowed ........ NO
    Water Quality .......... YES
  Infiltration Method ...... HORTON
  Flow Routing Method ...... DYNWAVE
  Surcharge Method ......... EXTRAN
  Starting Date ............ 08/28/2015 08:00:00
  Ending Date .............. 08/28/2015 15:50:00
  Antecedent Dry Days ...... 8.0
  Report Time Step ......... 00:01:00
  Wet Time Step ............ 00:01:00
  Dry Time Step ............ 00:01:00
  Routing Time Step ........ 5.00 sec
  Variable Time Step ....... YES
  Maximum Trials ........... 8
  Number of Threads ........ 4
  Head Tolerance ........... 0.001500 m
  
  
  **************************        Volume         Depth
  Runoff Quantity Continuity     hectare-m            mm
  **************************     ---------       -------
  Total Precipitation ......         7.641        16.729
  Evaporation Loss .........         0.000         0.000
  Infiltration Loss ........         1.184         2.592
  Surface Runoff ...........         5.481        12.000
  Final Storage ............         0.977         2.139
  Continuity Error (%) .....        -0.016
  
  
  **************************           COD            SS            TN            TP         NH4-N
  Runoff Quality Continuity             kg            kg            kg            kg            kg
  **************************    ----------    ----------    ----------    ----------    ----------
  Initial Buildup ..........     41378.656     70582.865      1804.177       168.684      1032.807
  Surface Buildup ..........        30.344        63.217         2.449         0.220         1.402
  Wet Deposition ...........         0.000         0.000         0.000         0.000         0.000
  Sweeping Removal .........         0.000         0.000         0.000         0.000         0.000
  Infiltration Loss ........       127.934       247.015         2.452         0.174         1.174
  BMP Removal ..............         0.000         0.000         0.000         0.000         0.000
  Surface Runoff ...........      5553.100     10632.121       107.101         7.411        51.076
  Remaining Buildup ........     35725.917     59762.998      1697.031       161.316       981.940
  Continuity Error (%) .....         0.005         0.006         0.002         0.002         0.002
  
  
  **************************        Volume        Volume
  Flow Routing Continuity        hectare-m      10^6 ltr
  **************************     ---------     ---------
  Dry Weather Inflow .......         0.616         6.165
  Wet Weather Inflow .......         5.480        54.797
  Groundwater Inflow .......         0.000         0.000
  RDII Inflow ..............         0.000         0.000
  External Inflow ..........         0.102         1.024
  External Outflow .........         1.608        16.084
  Flooding Loss ............         4.012        40.125
  Evaporation Loss .........         0.000         0.000
  Exfiltration Loss ........         0.000         0.000
  Initial Stored Volume ....         0.076         0.761
  Final Stored Volume ......         0.658         6.576
  Continuity Error (%) .....        -0.063
  
  
  **************************           COD            SS            TN            TP         NH4-N
  Quality Routing Continuity            kg            kg            kg            kg            kg
  **************************    ----------    ----------    ----------    ----------    ----------
  Dry Weather Inflow .......      1541.201      2465.922       147.955        18.494        92.472
  Wet Weather Inflow .......      5552.522     10631.153       107.088         7.410        51.070
  Groundwater Inflow .......         0.000         0.000         0.000         0.000         0.000
  RDII Inflow ..............         0.000         0.000         0.000         0.000         0.000
  External Inflow ..........       183.418       293.469        17.608         2.201        11.005
  External Outflow .........      2057.987      3663.219       112.502        12.843        66.989
  Flooding Loss ............      4489.559      8403.888       131.502        12.276        71.193
  Exfiltration Loss ........         0.000         0.000         0.000         0.000         0.000
  Mass Reacted .............         0.000         0.000         0.000         0.000         0.000
  Initial Stored Mass ......         0.000         0.000         0.000         0.000         0.000
  Final Stored Mass ........       728.583      1324.376        28.227         2.932        16.093
  Continuity Error (%) .....         0.014        -0.007         0.155         0.196         0.176
  
  
  *************************
  Highest Continuity Errors
  *************************
  Node HS02004842 (10.96%)
  Node YS02001884 (9.04%)
  Node HS02004817 (2.13%)
  Node WS02006252 (2.12%)
  Node YSB1171 (1.97%)
  
  
  ***************************
  Time-Step Critical Elements
  ***************************
  Link WS02006238WS02006235 (22.78%)
  Link WS02006280WS02006229 (17.78%)
  Link YS02006556YS02006558 (15.81%)
  Link YS02001661YS02001658 (9.52%)
  Link WS02003066WSF200 (6.92%)
  
  
  ********************************
  Highest Flow Instability Indexes
  ********************************
  Link WS02006113WS02006111 (65)
  Link WS02006111WS02006112 (29)
  Link YS02006558YS02006561 (21)
  Link YS02006556YS02006558 (19)
  Link YS02001882YS02001884 (19)
  
  
  *************************
  Routing Time Step Summary
  *************************
  Minimum Time Step           :     0.50 sec
  Average Time Step           :     2.36 sec
  Maximum Time Step           :     5.00 sec
  Percent in Steady State     :     0.00
  Average Iterations per Step :     3.02
  Percent Not Converging      :    10.60
  
  
  ***************************
  Subcatchment Runoff Summary
  ***************************
  
  ------------------------------------------------------------------------------------------------------------------------------
                            Total      Total      Total      Total     Imperv       Perv      Total       Total     Peak  Runoff
                           Precip      Runon       Evap      Infil     Runoff     Runoff     Runoff      Runoff   Runoff   Coeff
  Subcatchment                 mm         mm         mm         mm         mm         mm         mm    10^6 ltr      LPS
  ------------------------------------------------------------------------------------------------------------------------------
  sub0                      16.73       0.00       0.00       0.71      15.51       0.47      15.98        0.01     3.87   0.955
  sub1                      16.73       0.00       0.00       1.18      14.80       0.66      15.46        0.10    26.74   0.924
  sub2                      16.73       0.00       0.00       4.79      10.46       1.40      11.85        0.11    25.81   0.708
  sub3                      16.73       0.00       0.00       5.01      10.42       1.18      11.60        0.26    56.97   0.693
  sub4                      16.73       0.00       0.00       1.28      14.64       0.56      15.20        0.32    66.74   0.909
  sub5                      16.73       0.00       0.00       0.73      15.46       0.44      15.91        0.18    46.91   0.951
  sub7                      16.73       0.00       0.00       0.93      15.16       0.58      15.74        0.05    14.85   0.941
  sub8                      16.73       0.00       0.00       0.94      15.15       0.57      15.72        0.10    27.42   0.940
  sub9                      16.73       0.00       0.00       0.94      15.15       0.57      15.72        0.08    20.52   0.940
  sub10                     16.73       0.00       0.00       0.83      15.30       0.50      15.81        0.17    46.04   0.945
  sub11                     16.73       0.00       0.00       0.83      15.32       0.51      15.83        0.18    50.62   0.947
  sub12                     16.73       0.00       0.00       1.34      14.51       0.83      15.34        0.13    39.22   0.917
  sub14                     16.73       0.00       0.00       0.94      15.15       0.57      15.72        0.15    40.40   0.939
  sub15                     16.73       0.00       0.00       3.54      11.65       1.48      13.13        0.23    57.86   0.785
  sub16                     16.73       0.00       0.00       3.72      11.17       1.80      12.97        0.14    37.34   0.776
  sub17                     16.73       0.00       0.00       3.62      11.33       1.73      13.07        0.11    30.57   0.781
  sub22                     16.73       0.00       0.00       5.27       9.49       1.92      11.42        0.72   183.11   0.683
  sub23                     16.73       0.00       0.00       4.37      10.50       1.82      12.32        0.59   153.57   0.736
  sub60                     16.73       0.00       0.00       1.74      12.78       0.27      13.05        3.96   446.24   0.780
  sub61                     16.73       0.00       0.00       2.46      12.72       0.38      13.11        4.04   542.53   0.784
  sub62                     16.73       0.00       0.00       1.06      13.91       0.27      14.19        4.36   558.01   0.848
  sub63                     16.73       0.00       0.00       4.39      11.06       0.46      11.52        3.49   496.40   0.689
  sub64                     16.73       0.00       0.00       2.23      12.28       0.28      12.56        3.82   424.95   0.751
  sub65                     16.73       0.00       0.00       1.91      12.51       0.27      12.77        3.93   431.32   0.764
  sub66                     16.73       0.00       0.00       4.54      10.46       0.31      10.78        3.31   388.44   0.644
  sub67                     16.73       0.00       0.00       1.01      14.45       0.32      14.78        4.56   675.76   0.883
  sub68                     16.73       0.00       0.00       1.95      13.33       0.39      13.71        4.22   589.75   0.820
  sub69                     16.73       0.00       0.00       2.00      13.62       0.51      14.12        3.30   542.07   0.844
  sub70                     16.73      14.42       0.00       8.47      19.01       2.12      21.13        4.84   534.50   0.678
  sub71                     16.73       0.00       0.00       1.08      13.65       0.25      13.90        3.28   394.68   0.831
  sub72                     16.73       0.00       0.00       1.02      11.50       0.15      11.65        2.37   206.66   0.697
  1                         16.73      20.58       0.00       1.37      22.38       7.20      29.58        6.95   612.18   0.793
  2                         16.73       0.00       0.00       3.02       4.04       3.18       7.22        2.89   331.58   0.431
  
  
  ****************************
  Subcatchment Washoff Summary
  ****************************
  
  ------------------------------------------------------------------------------------------
                                 COD            SS            TN            TP         NH4-N
  Subcatchment                    kg            kg            kg            kg            kg
  ------------------------------------------------------------------------------------------
  sub0                         3.641         7.161         0.064         0.005         0.031
  sub1                        15.670        31.767         0.296         0.021         0.143
  sub2                        10.304        20.454         0.214         0.015         0.099
  sub3                        25.293        49.815         0.517         0.036         0.240
  sub4                        36.168        74.260         0.714         0.044         0.344
  sub5                        35.763        71.366         0.649         0.050         0.316
  sub7                         7.894        16.212         0.150         0.010         0.073
  sub8                        11.755        24.726         0.234         0.014         0.113
  sub9                        10.113        20.966         0.196         0.013         0.095
  sub10                       29.347        59.341         0.545         0.040         0.265
  sub11                       28.395        58.052         0.536         0.037         0.260
  sub12                       24.463        49.072         0.450         0.034         0.218
  sub14                       21.697        44.543         0.414         0.028         0.200
  sub15                       29.696        58.821         0.572         0.042         0.270
  sub16                       19.246        38.050         0.367         0.028         0.174
  sub17                       17.687        34.653         0.330         0.026         0.156
  sub22                       95.915       186.896         1.820         0.139         0.857
  sub23                       54.382       109.539         1.141         0.076         0.527
  sub60                      353.947       679.509         6.988         0.437         3.357
  sub61                      439.695       840.113         8.188         0.570         3.952
  sub62                      449.790       873.119         8.744         0.564         4.209
  sub63                      328.186       618.356         6.505         0.463         3.037
  sub64                      450.924       835.563         8.299         0.611         3.976
  sub65                      460.537       856.688         8.527         0.617         4.090
  sub66                      259.427       485.147         5.248         0.348         2.463
  sub67                      667.181      1281.068        12.075         0.900         5.853
  sub68                      479.473       924.467         9.153         0.628         4.389
  sub69                      429.286       835.450         8.068         0.576         3.873
  sub70                      758.301      1478.311        15.194         1.074         7.173
  sub71                      296.268       580.620         6.027         0.356         2.890
  sub72                      247.759       452.374         4.612         0.320         2.223
  1                          576.917      1130.968        11.723         0.829         5.484
  2                           65.566       118.435         1.802         0.109         0.773
  ------------------------------------------------------------------------------------------
  System                    6740.687     12945.882       130.363         9.060        62.122
  
  
  ******************
  Node Depth Summary
  ******************
  
  ---------------------------------------------------------------------------------
                                 Average  Maximum  Maximum  Time of Max    Reported
                                   Depth    Depth      HGL   Occurrence   Max Depth
  Node                 Type       Meters   Meters   Meters  days hr:min      Meters
  ---------------------------------------------------------------------------------
  WS02001211           JUNCTION     0.70     0.79     5.62     0  02:00        0.79
  WS02001212           JUNCTION     0.42     0.53     5.59     0  02:00        0.53
  WS02001213           JUNCTION     0.65     0.81     5.57     0  02:00        0.81
  WS02003069           JUNCTION     0.47     0.69     5.28     0  01:59        0.69
  WS02003072           JUNCTION     0.53     0.74     5.11     0  02:00        0.74
  WS02003073           JUNCTION     0.32     0.46     4.53     0  02:00        0.46
  WS02003060           JUNCTION     0.41     0.61     5.54     0  01:59        0.61
  WS02003066           JUNCTION     0.23     0.39     5.94     0  01:56        0.39
  WS02003059           JUNCTION     0.71     0.87     5.56     0  02:00        0.87
  WS02003067           JUNCTION     0.55     0.82     6.14     0  01:52        0.82
  WS02004401           JUNCTION     0.69     1.28     7.28     0  01:50        1.26
  WS02004402           JUNCTION     0.72     1.26     7.22     0  01:50        1.26
  WS02004403           JUNCTION     0.73     1.23     7.16     0  01:50        1.22
  WS02004404           JUNCTION     0.80     1.27     7.12     0  01:50        1.26
  WS02004406           JUNCTION     0.79     1.18     7.01     0  01:50        1.18
  WS02004409           JUNCTION     0.51     0.98     6.75     0  01:53        0.98
  WS02004410           JUNCTION     0.52     0.96     6.68     0  01:53        0.96
  WS02004411           JUNCTION     0.53     0.94     6.62     0  01:53        0.94
  WS02004412           JUNCTION     0.54     0.91     6.55     0  01:53        0.91
  WS02004413           JUNCTION     0.68     1.03     6.50     0  01:53        1.03
  WS02004405           JUNCTION     0.79     1.24     7.09     0  01:50        1.24
  WS02006109           JUNCTION     0.82     1.72     8.34     0  01:51        1.70
  WS02006110           JUNCTION     0.79     1.51     8.09     0  01:50        1.50
  WS02006111           JUNCTION     0.27     0.95     7.66     0  01:50        0.93
  WS02006112           JUNCTION     0.88     1.62     7.50     0  01:50        1.60
  WS02006113           JUNCTION     0.37     0.98     7.88     0  01:50        0.97
  WS02006115           JUNCTION     0.61     1.27     7.41     0  01:50        1.26
  WS02006116           JUNCTION     0.68     1.31     7.35     0  01:50        1.30
  WS02006230           JUNCTION     0.80     1.94     8.69     0  01:51        1.93
  WS02006231           JUNCTION     0.54     1.58     8.71     0  01:51        1.56
  WS02006232           JUNCTION     0.66     1.68     8.72     0  01:51        1.67
  WS02006234           JUNCTION     0.57     1.58     8.73     0  01:51        1.56
  WS02006235           JUNCTION     0.60     1.58     8.74     0  01:51        1.57
  WS02006238           JUNCTION     0.61     1.59     8.74     0  01:51        1.58
  WS02006240           JUNCTION     0.49     1.43     8.72     0  01:51        1.42
  WS02006242           JUNCTION     0.51     1.45     8.72     0  01:51        1.44
  WS02006243           JUNCTION     0.38     1.29     8.71     0  01:51        1.29
  WS02006245           JUNCTION     0.33     1.22     8.71     0  01:51        1.21
  WS02006247           JUNCTION     0.32     1.20     8.70     0  01:51        1.20
  WS02006248           JUNCTION     0.25     1.10     8.69     0  01:50        1.10
  WS02006249           JUNCTION     0.26     1.09     8.69     0  01:50        1.09
  WS02006239           JUNCTION     0.56     1.52     8.73     0  01:51        1.51
  WS02006251           JUNCTION     0.21     1.09     8.76     0  01:50        1.03
  WS02006252           JUNCTION     0.08     0.52     8.76     0  01:50        0.46
  WS02006253           JUNCTION     0.25     1.15     8.80     0  01:50        1.07
  WS02006256           JUNCTION     1.91     2.35     9.28     0  01:34        2.35
  WS02004138           JUNCTION     0.16     0.17     7.42     0  05:02        0.17
  WS02004139           JUNCTION     0.64     0.72     5.63     0  02:01        0.72
  WS02004407           JUNCTION     0.23     0.40     6.71     0  01:51        0.40
  WS02006228           JUNCTION     0.84     1.90     8.55     0  01:51        1.89
  WS02006229           JUNCTION     0.82     1.97     8.67     0  01:51        1.96
  WS02006280           JUNCTION     0.10     0.32     8.59     0  01:50        0.30
  WS02006284           JUNCTION     0.41     0.66     9.06     0  01:54        0.66
  WS02006287           JUNCTION     0.15     0.40     9.36     0  01:54        0.40
  WSF200               JUNCTION     0.22     0.44     5.67     0  01:58        0.44
  HS02004901           JUNCTION     0.17     0.38    10.21     0  01:53        0.38
  HS02004881           JUNCTION     0.02     0.05     9.08     0  01:54        0.05
  HS02004876           JUNCTION     0.07     0.17     9.20     0  01:54        0.17
  HS02004870           JUNCTION     0.03     0.10     9.38     0  01:54        0.10
  HS02004862           JUNCTION     0.04     0.11     9.50     0  01:55        0.11
  HS02004856           JUNCTION     0.09     0.15     9.58     0  01:54        0.15
  HS02004852           JUNCTION     0.02     0.08     9.59     0  01:54        0.08
  HS02004848           JUNCTION     0.02     0.07     9.67     0  01:54        0.07
  HS02004842           JUNCTION     0.34     0.40     9.67     0  01:54        0.40
  HS02004837           JUNCTION     0.04     0.09     9.67     0  01:54        0.09
  HS02004830           JUNCTION     0.05     0.11     9.58     0  01:55        0.11
  HS02004824           JUNCTION     0.04     0.15     9.55     0  01:54        0.15
  HS02004817           JUNCTION     0.48     0.71     9.56     0  01:54        0.71
  HS02004807           JUNCTION     0.16     0.38     9.55     0  01:55        0.38
  HS02004802           JUNCTION     0.20     0.41     9.54     0  01:55        0.41
  HS02004799           JUNCTION     0.18     0.48     9.69     0  01:53        0.48
  HS02004792           JUNCTION     0.07     0.22     9.75     0  01:53        0.22
  HS02004788           JUNCTION     0.05     0.16    10.06     0  01:54        0.16
  HS02004785           JUNCTION     0.08     0.25    10.15     0  01:53        0.25
  HS02004777           JUNCTION     0.19     0.40    10.20     0  01:53        0.40
  HS02004770           JUNCTION     0.16     0.37    10.21     0  01:53        0.37
  HS02004480           JUNCTION     0.13     0.39     9.64     0  01:53        0.39
  HS02004479           JUNCTION     0.17     0.43     9.64     0  01:53        0.43
  HS02004478           JUNCTION     0.10     0.29     9.52     0  01:54        0.29
  YS02001745           JUNCTION     0.75     0.98     8.49     0  02:41        0.98
  YS02001748           JUNCTION     1.13     1.42     8.50     0  02:39        1.41
  YS02001751           JUNCTION     1.30     1.61     8.49     0  02:40        1.60
  YS02001754           JUNCTION     1.54     1.87     8.48     0  02:41        1.86
  YS02001762           JUNCTION     1.73     2.07     8.47     0  02:39        2.06
  YS02001765           JUNCTION     1.69     2.01     8.46     0  02:40        2.00
  YS02001767           JUNCTION     1.65     1.96     8.45     0  02:41        1.96
  YS02001770           JUNCTION     1.65     1.95     8.44     0  02:39        1.94
  YS02001774           JUNCTION     1.70     1.99     8.42     0  02:41        1.99
  YS02001779           JUNCTION     1.45     1.68     8.37     0  01:50        1.68
  YS02001882           JUNCTION     0.82     1.63     8.35     0  02:12        1.63
  YS02001884           JUNCTION     0.92     1.74     8.35     0  02:13        1.73
  YS02001759           JUNCTION     1.77     2.11     8.47     0  02:39        2.10
  YS02001887           JUNCTION     0.99     1.82     8.35     0  02:13        1.81
  YS02001890           JUNCTION     1.02     1.81     8.32     0  01:53        1.81
  YS02001898           JUNCTION     0.79     1.56     8.30     0  02:16        1.56
  YS02001901           JUNCTION     0.90     1.68     8.29     0  02:15        1.68
  YS02001904           JUNCTION     0.87     1.64     8.27     0  01:56        1.63
  YS02001907           JUNCTION     1.20     1.96     8.25     0  01:53        1.96
  YS02001910           JUNCTION     0.99     1.82     8.33     0  01:54        1.78
  YS02001915           JUNCTION     0.80     1.66     8.38     0  01:54        1.60
  YS02001918           JUNCTION     0.53     1.40     8.47     0  01:54        1.30
  YS02001619           JUNCTION     1.25     1.61     8.54     0  01:45        1.48
  YS02001629           JUNCTION     1.58     1.85     8.40     0  01:45        1.84
  YS02001641           JUNCTION     1.68     1.94     8.37     0  02:03        1.93
  YS02001644           JUNCTION     1.68     1.92     8.35     0  01:48        1.92
  YS02001652           JUNCTION     1.55     1.92     8.52     0  01:58        1.86
  YS02001655           JUNCTION     1.33     1.72     8.57     0  01:58        1.62
  YS02001920           JUNCTION     0.62     1.50     8.51     0  01:54        1.38
  YS02001923           JUNCTION     0.44     1.28     8.54     0  01:54        1.15
  YS02001926           JUNCTION     0.43     1.08     8.53     0  01:54        1.05
  YS02001929           JUNCTION     0.28     0.81     8.50     0  01:54        0.81
  YS02001658           JUNCTION     1.07     1.50     8.64     0  01:58        1.40
  YS02001661           JUNCTION     0.85     1.41     8.82     0  01:58        1.25
  YS02001664           JUNCTION     0.40     0.55     8.47     0  01:53        0.55
  YS02001622           JUNCTION     1.27     1.62     8.52     0  01:45        1.50
  YS02001633           JUNCTION     1.67     1.96     8.41     0  01:45        1.95
  YS02001649           JUNCTION     1.74     2.05     8.44     0  01:58        2.05
  YS02001757           JUNCTION     1.86     2.21     8.47     0  02:40        2.20
  YS02001895           JUNCTION     0.78     1.57     8.31     0  02:07        1.56
  YS02001625           JUNCTION     1.54     1.78     8.38     0  01:45        1.78
  YS02163301           JUNCTION     1.61     1.89     8.41     0  01:45        1.88
  YS02163601           JUNCTION     1.72     2.00     8.40     0  01:45        1.98
  YS02164001           JUNCTION     1.66     1.93     8.38     0  01:45        1.92
  YS02001647           JUNCTION     1.52     1.80     8.41     0  02:57        1.79
  YSB1154              JUNCTION     0.31     0.58     9.64     0  01:53        0.58
  YSB6556              JUNCTION     0.20     0.47     9.64     0  01:53        0.47
  YSB1174              JUNCTION     0.26     0.53     9.64     0  01:53        0.53
  YSB1171              JUNCTION     0.46     0.74     9.64     0  01:53        0.74
  YS02006553           JUNCTION     1.20     1.97     8.26     0  01:59        1.97
  YS02006561           JUNCTION     0.50     1.08     7.74     0  02:12        1.07
  YS02006556           JUNCTION     1.16     1.95     8.26     0  01:59        1.93
  YS02006558           JUNCTION     1.20     1.99     8.26     0  01:59        1.97
  YS02001783           JUNCTION     0.74     1.46     7.60     0  02:12        1.46
  YS02001784           JUNCTION     0.73     1.40     7.47     0  02:13        1.40
  YS02001786           JUNCTION     0.63     1.24     7.27     0  02:14        1.24
  YS02001788           JUNCTION     0.53     1.10     7.08     0  02:18        1.10
  YS02001790           JUNCTION     0.62     1.26     6.91     0  02:15        1.26
  YS02001791           JUNCTION     0.54     1.24     6.71     0  02:17        1.23
  YS02001793           JUNCTION     0.84     1.76     6.59     0  02:14        1.75
  WSC                  OUTFALL      0.32     0.46     1.13     0  02:01        0.46
  JK-storage           STORAGE      4.70     5.76     6.56     0  02:17        5.76
  CC-storage           STORAGE      1.12     1.47     8.47     0  02:35        1.47
  XR-storage           STORAGE      7.57     7.72     5.72     0  01:40        7.72
  
  
  *******************
  Node Inflow Summary
  *******************
  
  -------------------------------------------------------------------------------------------------
                                  Maximum  Maximum                  Lateral       Total        Flow
                                  Lateral    Total  Time of Max      Inflow      Inflow     Balance
                                   Inflow   Inflow   Occurrence      Volume      Volume       Error
  Node                 Type           LPS      LPS  days hr:min    10^6 ltr    10^6 ltr     Percent
  -------------------------------------------------------------------------------------------------
  WS02001211           JUNCTION      7.35   295.67     0  02:28       0.207        7.59       0.502
  WS02001212           JUNCTION      0.00   299.02     0  02:28           0        7.55       0.257
  WS02001213           JUNCTION      0.00   301.86     0  02:27           0        7.53       0.288
  WS02003069           JUNCTION      0.32  1253.86     0  02:00     0.00902        16.1       0.140
  WS02003072           JUNCTION      0.00  1253.89     0  02:00           0        16.1       0.179
  WS02003073           JUNCTION      1.82  1255.87     0  02:00      0.0514        16.1       0.197
  WS02003060           JUNCTION     16.53  1253.65     0  01:59       0.466        16.1       0.134
  WS02003066           JUNCTION      0.00   954.18     0  01:54           0         8.2       0.032
  WS02003059           JUNCTION      0.00   305.34     0  02:27           0        7.51       0.504
  WS02003067           JUNCTION      0.00   953.52     0  01:53           0         8.2       0.075
  WS02004401           JUNCTION      0.00   960.28     0  01:51           0        8.37       0.195
  WS02004402           JUNCTION      0.00   960.15     0  01:51           0        8.35       0.190
  WS02004403           JUNCTION      0.00   960.43     0  01:51           0        8.34       0.177
  WS02004404           JUNCTION      0.16   961.36     0  01:51     0.00457        8.33       0.134
  WS02004406           JUNCTION      0.00   962.00     0  01:51           0         8.3       0.333
  WS02004409           JUNCTION      0.00   959.62     0  01:51           0        8.27       0.109
  WS02004410           JUNCTION      0.00   952.98     0  01:54           0        8.26       0.127
  WS02004411           JUNCTION      0.00   952.83     0  01:55           0        8.25       0.135
  WS02004412           JUNCTION      0.00   952.73     0  01:53           0        8.24       0.155
  WS02004413           JUNCTION      0.00   953.51     0  01:53           0        8.22       0.251
  WS02004405           JUNCTION      0.04   961.33     0  01:51     0.00107        8.32       0.206
  WS02006109           JUNCTION      1.23   928.17     0  01:52      0.0347        8.34       0.186
  WS02006110           JUNCTION      0.00   928.40     0  01:52           0        8.33       0.192
  WS02006111           JUNCTION      0.00   928.86     0  01:51           0        8.31       0.033
  WS02006112           JUNCTION     30.57   959.42     0  01:52       0.112        8.42       0.251
  WS02006113           JUNCTION      0.00   928.35     0  01:51           0        8.31       0.076
  WS02006115           JUNCTION      0.00   960.09     0  01:51           0        8.39       0.186
  WS02006116           JUNCTION      0.00   960.07     0  01:51           0        8.38       0.138
  WS02006230           JUNCTION     10.28   327.82     0  02:28        0.29        5.25       0.182
  WS02006231           JUNCTION      0.00   317.42     0  02:28           0        4.96       0.058
  WS02006232           JUNCTION      0.00   317.33     0  02:28           0        4.96       0.162
  WS02006234           JUNCTION      0.00   317.16     0  02:29           0        4.96       0.073
  WS02006235           JUNCTION      0.00   328.85     0  01:35           0         5.2       0.055
  WS02006238           JUNCTION      0.00   228.72     0  01:35           0       0.934       0.296
  WS02006240           JUNCTION      0.00   138.72     0  01:36           0       0.767       0.540
  WS02006242           JUNCTION      0.00   126.90     0  02:16           0       0.673       0.785
  WS02006243           JUNCTION      0.00   126.82     0  02:16           0       0.594       0.641
  WS02006245           JUNCTION      0.00   126.90     0  02:16           0        0.55       0.596
  WS02006247           JUNCTION      0.00   127.08     0  02:16           0       0.526       0.180
  WS02006248           JUNCTION      0.00   127.12     0  02:16           0       0.539      -0.038
  WS02006249           JUNCTION      0.00   171.66     0  01:50           0       0.617       0.146
  WS02006239           JUNCTION      0.00   143.97     0  01:35           0       0.859       0.347
  WS02006251           JUNCTION      0.08   159.93     0  01:53     0.00217       0.617      -0.031
  WS02006252           JUNCTION      0.00    24.35     0  01:48           0     0.00108       2.162
  WS02006253           JUNCTION      3.87   156.77     0  01:54      0.0129       0.614       0.006
  WS02006256           JUNCTION      0.00   983.00     0  01:39           0        11.6      -0.055
  WS02004138           JUNCTION      0.00   285.00     0  01:24           0        7.41       0.053
  WS02004139           JUNCTION      0.32   285.32     0  01:56     0.00905        7.42       0.487
  WS02004407           JUNCTION      0.00   961.64     0  01:51           0        8.27       0.056
  WS02006228           JUNCTION      0.00   927.11     0  01:52           0        8.32       0.138
  WS02006229           JUNCTION      0.00   963.19     0  01:50           0        8.34       0.143
  WS02006280           JUNCTION      0.00   736.13     0  01:54           0        3.11       0.007
  WS02006284           JUNCTION      0.10   735.88     0  01:54      0.0027        3.11       0.018
  WS02006287           JUNCTION      0.00   735.67     0  01:54           0        3.11       0.024
  WSF200               JUNCTION      0.00   954.20     0  01:54           0        8.19       0.026
  HS02004901           JUNCTION     37.34    37.34     0  01:51       0.136       0.136       1.312
  HS02004881           JUNCTION     14.85   153.29     0  01:54       0.053       0.601       0.044
  HS02004876           JUNCTION     26.74   139.07     0  01:54       0.103       0.549       0.099
  HS02004870           JUNCTION     27.42   112.65     0  01:54         0.1       0.446       0.025
  HS02004862           JUNCTION     26.01    86.18     0  01:54       0.116       0.346       0.050
  HS02004856           JUNCTION     20.52    60.23     0  01:54      0.0756       0.231       0.629
  HS02004852           JUNCTION      0.00    40.37     0  01:54           0       0.155       0.036
  HS02004848           JUNCTION     56.97    56.97     0  01:56       0.261       0.261       0.019
  HS02004842           JUNCTION      0.00    18.18     0  02:06           0       0.119      12.305
  HS02004837           JUNCTION     52.39    67.88     0  01:54       0.353       0.459       0.172
  HS02004830           JUNCTION      0.15    67.98     0  01:54     0.00423       0.449       0.275
  HS02004824           JUNCTION     66.79   134.69     0  01:56       0.319       0.767       0.071
  HS02004817           JUNCTION      0.60   137.04     0  01:57      0.0169       0.783       2.173
  HS02004807           JUNCTION     50.62   184.29     0  01:55       0.184       0.952       0.461
  HS02004802           JUNCTION      0.00   183.95     0  01:56           0        0.95       0.415
  HS02004799           JUNCTION     40.40   470.75     0  01:53        0.15        1.87       0.159
  HS02004792           JUNCTION    183.39   430.98     0  01:53       0.729        1.72       0.024
  HS02004788           JUNCTION     59.53   248.80     0  01:53       0.273       0.991       0.039
  HS02004785           JUNCTION      0.15   189.56     0  01:53     0.00423        0.72       0.070
  HS02004777           JUNCTION      0.03   189.71     0  01:52    0.000846        0.72       0.728
  HS02004770           JUNCTION    153.57   190.37     0  01:52       0.587       0.722       0.429
  HS02004480           JUNCTION      0.00   554.33     0  01:53           0        2.18       0.043
  HS02004479           JUNCTION      0.00    83.75     0  01:53           0       0.323       0.229
  HS02004478           JUNCTION      0.00   735.61     0  01:54           0        3.11       0.010
  YS02001745           JUNCTION    446.25   446.25     0  02:16        3.95        3.95       0.292
  YS02001748           JUNCTION      0.04   451.01     0  02:15     0.00127        3.94       0.583
  YS02001751           JUNCTION      0.01   450.26     0  02:15     0.00031        3.92       0.609
  YS02001754           JUNCTION      0.26   450.04     0  02:15     0.00733        3.91       0.629
  YS02001762           JUNCTION      0.00   435.04     0  01:55           0        2.65       0.798
  YS02001765           JUNCTION      0.00   434.36     0  01:55           0        2.65       0.921
  YS02001767           JUNCTION      0.54   435.17     0  01:55      0.0151        2.68       1.348
  YS02001770           JUNCTION    558.16   788.94     0  02:40        4.36        5.89       0.535
  YS02001774           JUNCTION      0.00   788.88     0  02:40           0        4.72       0.531
  YS02001779           JUNCTION      0.01   788.86     0  02:40    0.000141        4.69       0.326
  YS02001882           JUNCTION      0.00    26.83     0  01:49           0      0.0273       8.235
  YS02001884           JUNCTION      0.00    41.71     0  01:48           0      0.0649       9.936
  YS02001759           JUNCTION    542.57   877.23     0  01:57        4.04        5.14       0.444
  YS02001887           JUNCTION    676.21   676.75     0  02:15        4.57         4.6       0.175
  YS02001890           JUNCTION      0.00   677.45     0  02:13           0        4.56       0.195
  YS02001898           JUNCTION      0.00   557.93     0  01:53           0        4.27       0.061
  YS02001901           JUNCTION      0.00   557.57     0  01:53           0        4.27       0.152
  YS02001904           JUNCTION      0.00   558.23     0  01:53           0        4.27       0.132
  YS02001907           JUNCTION      0.00  1156.92     0  01:55           0        9.99       0.225
  YS02001910           JUNCTION      0.00   631.54     0  01:55           0        5.73       0.197
  YS02001915           JUNCTION    394.70   630.69     0  01:55        3.28        5.77       0.101
  YS02001918           JUNCTION      0.00   329.16     0  01:55           0        2.51       0.046
  YS02001619           JUNCTION    388.44   388.44     0  02:16         3.3         3.3       0.368
  YS02001629           JUNCTION      0.00   222.90     0  01:48           0        1.43       2.046
  YS02001641           JUNCTION      0.00   456.20     0  01:48           0        5.09       0.415
  YS02001644           JUNCTION    424.99  1620.39     0  02:31        3.82        16.3       0.158
  YS02001652           JUNCTION      0.00   520.75     0  02:10           0        3.42       0.670
  YS02001655           JUNCTION      0.15   519.22     0  02:10     0.00434        3.45       0.733
  YS02001920           JUNCTION      2.87   328.25     0  01:55      0.0809        2.49       0.106
  YS02001923           JUNCTION      0.04   280.61     0  01:54     0.00106         2.4       0.049
  YS02001926           JUNCTION      0.05   206.88     0  03:01     0.00147        2.38       0.135
  YS02001929           JUNCTION    206.66   206.66     0  03:01        2.37        2.37       0.030
  YS02001658           JUNCTION      0.00   518.66     0  02:10           0        3.47       0.705
  YS02001661           JUNCTION      0.00   756.39     0  01:55           0        3.48       0.364
  YS02001664           JUNCTION    496.40   496.40     0  02:16        3.49        3.49       0.155
  YS02001622           JUNCTION      0.00   389.37     0  02:16           0        3.29       0.973
  YS02001633           JUNCTION    431.52   459.98     0  01:48        3.93        5.24       0.612
  YS02001649           JUNCTION      0.00  1017.34     0  02:39           0        9.06       0.408
  YS02001757           JUNCTION      0.00  2147.58     0  01:55           0         9.2       0.998
  YS02001895           JUNCTION      0.00   556.94     0  01:53           0        4.28       0.121
  YS02001625           JUNCTION      0.00   435.87     0  02:15           0        3.34       1.181
  YS02163301           JUNCTION      0.00   222.72     0  01:48           0        1.42       1.701
  YS02163601           JUNCTION      0.11   459.20     0  01:48      0.0031        5.11       0.589
  YS02164001           JUNCTION      0.00   458.26     0  01:48           0        5.09       0.391
  YS02001647           JUNCTION      0.00   847.42     0  02:57           0        8.22       0.344
  YSB1154              JUNCTION     46.91    46.91     0  01:52        0.18       0.181       0.806
  YSB6556              JUNCTION      0.00    46.64     0  01:52           0       0.182       0.696
  YSB1174              JUNCTION     39.22    39.22     0  01:50       0.134       0.134       0.963
  YSB1171              JUNCTION      0.00    84.01     0  01:52           0       0.322       2.011
  YS02006553           JUNCTION      0.00   717.28     0  03:36           0        7.43       0.195
  YS02006561           JUNCTION      0.00  1147.21     0  01:56           0        11.6       0.002
  YS02006556           JUNCTION      0.00   718.17     0  03:36           0        7.44       0.132
  YS02006558           JUNCTION    590.63  1148.32     0  01:56        4.24        11.6       0.044
  YS02001783           JUNCTION      0.00  1147.18     0  01:56           0        11.6       0.017
  YS02001784           JUNCTION      1.06  1148.41     0  01:56      0.0299        11.6       0.030
  YS02001786           JUNCTION      0.06  1148.02     0  01:56     0.00159        11.6       0.029
  YS02001788           JUNCTION      0.07  1147.98     0  01:56       0.002        11.6       0.018
  YS02001790           JUNCTION      0.15  1162.05     0  01:54     0.00437        11.6       0.025
  YS02001791           JUNCTION      0.00  1252.85     0  01:54           0        11.6       0.005
  YS02001793           JUNCTION      0.00  1178.82     0  01:54           0        11.7       0.025
  WSC                  OUTFALL       0.00  1256.25     0  02:01           0        16.1       0.000
  JK-storage           STORAGE       0.00  1173.71     0  01:54           0        11.8       0.013
  CC-storage           STORAGE       0.00  2149.63     0  01:55           0        4.17       1.582
  XR-storage           STORAGE    1054.62  1054.62     0  03:01        15.5        16.1      -0.002
  
  
  **********************
  Node Surcharge Summary
  **********************
  
  Surcharging occurs when water rises above the top of the highest conduit.
  ---------------------------------------------------------------------
                                               Max. Height   Min. Depth
                                   Hours       Above Crown    Below Rim
  Node                 Type      Surcharged         Meters       Meters
  ---------------------------------------------------------------------
  WS02004401           JUNCTION        0.74          0.283        1.377
  WS02004402           JUNCTION        0.78          0.262        1.478
  WS02004403           JUNCTION        0.79          0.231        1.799
  WS02004404           JUNCTION        1.04          0.266        2.514
  WS02004406           JUNCTION        0.93          0.179        2.271
  WS02004413           JUNCTION        0.46          0.030        2.170
  WS02004405           JUNCTION        0.97          0.242        2.558
  WS02006109           JUNCTION        1.80          0.904        0.916
  WS02006110           JUNCTION        1.50          0.599        1.251
  WS02006111           JUNCTION        0.37          0.140        1.730
  WS02006112           JUNCTION        1.58          0.616        1.064
  WS02006113           JUNCTION        0.40          0.185        1.745
  WS02006115           JUNCTION        0.62          0.262        1.988
  WS02006116           JUNCTION        0.64          0.248        2.042
  WS02006230           JUNCTION        0.99          0.861        0.709
  WS02006231           JUNCTION        1.09          0.873        0.657
  WS02006232           JUNCTION        1.62          0.980        0.500
  WS02006234           JUNCTION        1.27          0.856        0.384
  WS02006235           JUNCTION        1.46          0.869        0.421
  WS02006238           JUNCTION        1.48          0.875        0.555
  WS02006240           JUNCTION        0.91          0.720        0.670
  WS02006242           JUNCTION        0.92          0.720        0.100
  WS02006243           JUNCTION        0.72          0.580        0.190
  WS02006245           JUNCTION        0.66          0.511        0.339
  WS02006247           JUNCTION        0.65          0.493        0.267
  WS02006248           JUNCTION        0.58          0.380        0.000
  WS02006249           JUNCTION        0.59          0.390        0.000
  WS02006239           JUNCTION        1.05          0.781        0.509
  WS02006251           JUNCTION        0.15          0.062        1.118
  WS02006252           JUNCTION        0.41          0.122        0.978
  WS02006253           JUNCTION        0.37          0.114        2.366
  WS02006256           JUNCTION        6.34          2.050        0.000
  WS02006228           JUNCTION        1.79          1.066        1.134
  HS02004817           JUNCTION        0.14          0.011        1.729
  YS02001748           JUNCTION        6.04          0.339        0.851
  YS02001751           JUNCTION        6.08          0.608        0.592
  YS02001754           JUNCTION        6.14          0.821        0.329
  YS02001762           JUNCTION        6.19          1.068        0.082
  YS02001765           JUNCTION        6.18          1.011        0.089
  YS02001767           JUNCTION        6.18          0.963        0.067
  YS02001770           JUNCTION        6.18          0.915        0.005
  YS02001774           JUNCTION        6.19          0.995        0.055
  YS02001779           JUNCTION        6.13          0.680        0.000
  YS02001882           JUNCTION        1.80          0.635        0.195
  YS02001884           JUNCTION        1.82          0.677        0.193
  YS02001759           JUNCTION        6.20          1.106        0.104
  YS02001887           JUNCTION        1.87          0.766        0.184
  YS02001890           JUNCTION        1.89          0.760        0.000
  YS02001898           JUNCTION        1.77          0.533        0.207
  YS02001901           JUNCTION        1.85          0.677        0.193
  YS02001904           JUNCTION        1.83          0.641        0.209
  YS02001907           JUNCTION        2.40          0.950        0.000
  YS02001910           JUNCTION        1.93          0.818        0.282
  YS02001915           JUNCTION        1.79          0.661        0.339
  YS02001918           JUNCTION        1.64          0.403        0.407
  YS02001619           JUNCTION        6.09          0.610        0.000
  YS02001629           JUNCTION        6.09          0.470        0.000
  YS02001641           JUNCTION        6.18          0.936        0.164
  YS02001644           JUNCTION        6.18          0.920        0.000
  YS02001652           JUNCTION        6.15          0.890        0.240
  YS02001655           JUNCTION        6.10          0.721        0.479
  YS02001920           JUNCTION        1.66          0.499        0.641
  YS02001923           JUNCTION        0.01          0.073        0.747
  YS02001926           JUNCTION        0.01          0.081        0.819
  YS02001658           JUNCTION        6.05          0.502        0.798
  YS02001661           JUNCTION        0.15          0.343        1.047
  YS02001622           JUNCTION        6.10          0.620        0.000
  YS02001633           JUNCTION        6.17          0.937        0.123
  YS02001649           JUNCTION        6.19          1.050        0.000
  YS02001757           JUNCTION        6.23          1.208        0.002
  YS02001895           JUNCTION        1.78          0.567        0.183
  YS02001625           JUNCTION        6.16          0.780        0.000
  YS02163301           JUNCTION        6.17          0.893        0.137
  YS02163601           JUNCTION        6.20          1.002        0.078
  YS02164001           JUNCTION        6.17          0.926        0.174
  YS02001647           JUNCTION        6.15          0.799        0.101
  YS02006553           JUNCTION        2.49          0.974        0.216
  YS02006561           JUNCTION        1.65          0.282        0.868
  YS02006556           JUNCTION        2.11          0.909        0.441
  YS02006558           JUNCTION        2.08          0.891        0.509
  YS02001783           JUNCTION        1.89          0.662        0.938
  YS02001784           JUNCTION        1.86          0.603        0.887
  YS02001786           JUNCTION        1.75          0.443        0.987
  YS02001788           JUNCTION        1.59          0.304        1.176
  YS02001790           JUNCTION        1.69          0.463        0.694
  YS02001791           JUNCTION        1.68          0.437        1.483
  YS02001793           JUNCTION        1.80          0.761        1.839
  
  
  *********************
  Node Flooding Summary
  *********************
  
  Flooding refers to all water that overflows a node, whether it ponds or not.
  --------------------------------------------------------------------------
                                                             Total   Maximum
                                 Maximum   Time of Max       Flood    Ponded
                        Hours       Rate    Occurrence      Volume     Depth
  Node                 Flooded       LPS   days hr:min    10^6 ltr    Meters
  --------------------------------------------------------------------------
  WS02006248              0.24     49.01      0  01:55       0.025     0.000
  WS02006249              0.36     89.97      0  01:56       0.082     0.000
  WS02006256              5.25    836.17      0  01:51       7.131     0.000
  YS02001779              3.51    788.76      0  02:40       4.673     0.000
  YS02001890              0.78    161.44      0  02:12       0.268     0.000
  YS02001907              1.49    716.69      0  02:16       2.550     0.000
  YS02001619              0.01     18.07      0  01:45       0.000     0.000
  YS02001629              0.01     26.18      0  01:45       0.000     0.000
  YS02001644              6.02   1620.39      0  02:31      15.553     0.000
  YS02001622              0.01     16.53      0  01:45       0.000     0.000
  YS02001649              0.54    170.45      0  02:40       0.140     0.000
  YS02001625              2.12    435.67      0  02:15       1.967     0.000
  XR-storage              6.16    769.56      0  03:01       7.737     0.000
  
  
  **********************
  Storage Volume Summary
  **********************
  
  --------------------------------------------------------------------------------------------------
                         Average     Avg  Evap Exfil       Maximum     Max    Time of Max    Maximum
                          Volume    Pcnt  Pcnt  Pcnt        Volume    Pcnt     Occurrence    Outflow
  Storage Unit           1000 m3    Full  Loss  Loss       1000 m3    Full    days hr:min        LPS
  --------------------------------------------------------------------------------------------------
  JK-storage               0.236      81     0     0         0.289      99       0  02:17     983.00
  CC-storage               3.115      20     0     0         4.087      26       0  02:35     122.32
  XR-storage               0.908      98     0     0         0.926     100       0  01:40     285.00
  
  
  ***********************
  Outfall Loading Summary
  ***********************
  
  ---------------------------------------------------------------------------------------------------------------------------------
                         Flow       Avg       Max       Total         Total         Total         Total         Total         Total
                         Freq      Flow      Flow      Volume           COD            SS            TN            TP         NH4-N
  Outfall Node           Pcnt       LPS       LPS    10^6 ltr            kg            kg            kg            kg            kg
  ---------------------------------------------------------------------------------------------------------------------------------
  WSC                   99.99    665.46   1256.25      16.084      2058.114      3663.429       112.513        12.844        66.996
  ---------------------------------------------------------------------------------------------------------------------------------
  System                99.99    665.46   1256.25      16.084      2058.114      3663.429       112.513        12.844        66.996
  
  
  ********************
  Link Flow Summary
  ********************
  
  -----------------------------------------------------------------------------
                                 Maximum  Time of Max   Maximum    Max/    Max/
                                  |Flow|   Occurrence   |Veloc|    Full    Full
  Link                 Type          LPS  days hr:min     m/sec    Flow   Depth
  -----------------------------------------------------------------------------
  WS02003066WSF200     CONDUIT    954.20     0  01:54      3.05    0.16    0.32
  WS02006287WS02006284 CONDUIT    735.79     0  01:54      2.45    0.34    0.41
  WS02006284WS02006280 CONDUIT    736.13     0  01:54      2.68    0.31    0.38
  WS02006280WS02006229 CONDUIT    736.15     0  01:54      4.04    0.16    0.54
  WS02006229WS02006228 CONDUIT    927.11     0  01:52      1.84    3.07    1.00
  WS02006256WS02006235 CONDUIT    274.49     0  07:38      3.90    2.91    1.00
  WS02006253WS02006251 CONDUIT    159.37     0  01:53      0.66    0.48    1.00
  WS02006252WS02006251 CONDUIT     24.35     0  01:48      1.00    0.09    1.00
  WS02006251WS02006249 CONDUIT    171.66     0  01:50      0.70    0.49    1.00
  WS02006249WS02006248 CONDUIT    127.12     0  02:16      0.79    0.70    1.00
  WS02006248WS02006247 CONDUIT    127.08     0  02:16      0.75    0.28    1.00
  WS02006247WS02006245 CONDUIT    126.90     0  02:16      0.70    1.01    1.00
  WS02006245WS02006243 CONDUIT    126.82     0  02:16      0.83    0.38    1.00
  WS02006243WS02006242 CONDUIT    126.90     0  02:16      0.67    0.27    1.00
  WS02006242WS02006240 CONDUIT    126.82     0  02:16      0.68    0.50    1.00
  WS02006240WS02006239 CONDUIT    127.21     0  02:16      0.74    0.40    1.00
  WS02006239WS02006238 CONDUIT    127.58     0  02:16      0.78    0.41    1.00
  WS02006238WS02006235 CONDUIT    188.87     0  06:58      1.14    0.42    1.00
  WS02006235WS02006234 CONDUIT    317.16     0  02:29      1.04    3.35    1.00
  WS02006234WS02006232 CONDUIT    317.33     0  02:28      0.88    0.64    1.00
  WS02006232WS02006231 CONDUIT    317.42     0  02:28      0.86    0.67    1.00
  WS02006231WS02006230 CONDUIT    317.54     0  02:28      1.21    4.82    1.00
  WS02006230WS02006229 CONDUIT    328.62     0  02:29      0.85    7.31    1.00
  WS02006228WS02006109 CONDUIT    926.94     0  01:52      1.84    4.05    1.00
  WS02006116WS02004401 CONDUIT    960.28     0  01:51      1.22    1.32    1.00
  WS02006115WS02006116 CONDUIT    960.07     0  01:51      1.22    1.23    1.00
  WS02006113WS02006111 CONDUIT    928.86     0  01:51      2.62    1.11    1.00
  WS02006112WS02006115 CONDUIT    960.09     0  01:51      1.22    0.57    1.00
  WS02006111WS02006112 CONDUIT    928.94     0  01:52      1.85    0.44    1.00
  WS02006110WS02006113 CONDUIT    928.35     0  01:51      1.85    0.84    1.00
  WS02006109WS02006110 CONDUIT    928.40     0  01:52      1.85    1.79    1.00
  WS02004411WS02004412 CONDUIT    952.73     0  01:53      1.26    1.35    0.93
  WS02004401WS02004402 CONDUIT    960.15     0  01:51      1.22    1.15    1.00
  WS02004413WS02003067 CONDUIT    953.52     0  01:53      1.57    0.41    0.72
  WS02004412WS02004413 CONDUIT    953.51     0  01:53      1.23    0.64    0.96
  WS02004410WS02004411 CONDUIT    952.83     0  01:55      1.24    1.30    0.95
  WS02004409WS02004410 CONDUIT    952.98     0  01:54      1.23    1.23    0.97
  WS02004407WS02004409 CONDUIT    959.62     0  01:51      1.71    0.34    0.69
  WS02004406WS02004407 CONDUIT    961.64     0  01:51      1.64    0.43    0.70
  WS02004405WS02004406 CONDUIT    962.00     0  01:51      1.22    1.90    1.00
  WS02004404WS02004405 CONDUIT    961.29     0  01:51      1.22    9.42    1.00
  WS02004403WS02004404 CONDUIT    961.20     0  01:51      1.22    0.69    1.00
  WS02004402WS02004403 CONDUIT    960.43     0  01:51      1.22    1.38    1.00
  WS02004139WS02001211 CONDUIT    288.33     0  02:28      0.54    0.36    0.59
  WS02004138WS02004139 CONDUIT    285.00     0  01:56      2.39    0.06    0.42
  WS02003067WS02003066 CONDUIT    954.18     0  01:54      1.67    0.31    0.50
  WS02001213WS02003059 CONDUIT    305.34     0  02:27      0.59    0.50    0.83
  WS02001212WS02001213 CONDUIT    301.86     0  02:27      1.19    0.47    0.51
  WS02001211WS02001212 CONDUIT    299.02     0  02:28      0.67    0.23    0.66
  WS02003072WS02003073 CONDUIT   1254.05     0  02:00      1.92    2.71    0.56
  WS02003069WS02003072 CONDUIT   1253.89     0  02:00      1.78    0.60    0.60
  WS02003060WS02003069 CONDUIT   1253.54     0  02:00      2.00    0.49    0.54
  WS02003059WS02003060 CONDUIT    309.49     0  02:26      0.82    0.20    0.74
  HS02004901HS02004770 CONDUIT     36.84     0  01:52      0.10    0.14    0.54
  HS02004876HS02004881 CONDUIT    139.08     0  01:54      1.26    1.48    0.16
  HS02004870HS02004876 CONDUIT    112.62     0  01:54      0.85    0.07    0.19
  HS02004842HS02004848 CONDUIT     18.18     0  02:06      0.08    0.01    0.34
  HS02004837HS02004842 CONDUIT     18.64     0  02:07      0.42    0.01    0.35
  HS02004830HS02004837 CONDUIT     67.83     0  01:54      0.68    0.07    0.14
  HS02004824HS02004830 CONDUIT     68.04     0  01:56      0.62    0.09    0.18
  HS02004817HS02004824 CONDUIT    136.44     0  01:57      0.32    0.06    0.60
  HS02004770HS02004777 CONDUIT    189.68     0  01:52      0.49    0.35    0.55
  HS02004799HS02004480 CONDUIT    470.63     0  01:53      1.09    0.59    0.62
  HS02004792HS02004799 CONDUIT    430.88     0  01:53      1.22    0.26    0.50
  HS02004788HS02004792 CONDUIT    248.73     0  01:54      1.29    0.16    0.28
  HS02004785HS02004788 CONDUIT    189.53     0  01:53      0.92    1.43    0.30
  HS02004777HS02004785 CONDUIT    189.41     0  01:53      0.59    0.23    0.46
  HS02004480HS02004478 CONDUIT    554.37     0  01:53      1.59    2.33    0.50
  HS02004479HS02004480 CONDUIT     83.71     0  01:53      0.37    0.08    0.59
  HS02004862HS02004870 CONDUIT     86.18     0  01:55      0.82    0.09    0.15
  HS02004848HS02004852 CONDUIT     40.37     0  01:54      0.54    0.05    0.11
  HS02004856HS02004862 CONDUIT     60.18     0  01:54      0.61    0.06    0.14
  HS02004852HS02004856 CONDUIT     40.43     0  01:55      0.35    0.05    0.17
  HS02004802HS02004478 CONDUIT    184.73     0  01:57      0.53    0.16    0.50
  HS02004478WS02006287 CONDUIT    735.67     0  01:54      2.18    0.21    0.38
  HS02004817HS02004807 CONDUIT    137.31     0  01:57      0.26    0.08    0.77
  HS02004807HS02004802 CONDUIT    183.95     0  01:56      0.47    0.35    0.56
  YS02001759YS02001757 CONDUIT    876.56     0  01:56      1.12    0.62    1.00
  YS02001762YS02001759 CONDUIT    434.51     0  01:55      0.55    0.50    1.00
  YS02001765YS02001762 CONDUIT    435.04     0  01:55      0.55    0.41    1.00
  YS02001770YS02001767 CONDUIT    434.63     0  01:55      0.55    1.72    1.00
  YS02001774YS02001770 CONDUIT    788.88     0  02:40      1.00    0.50    1.00
  YS02001779YS02001774 CONDUIT    788.85     0  02:40      1.00    0.40    1.00
  YS02001649YS02001757 CONDUIT   1000.90     0  01:50      1.27    0.61    1.00
  YS02001767YS02001765 CONDUIT    434.36     0  01:55      0.55    0.55    1.00
  YS02006561YS02001783 CONDUIT   1147.18     0  01:56      2.28    0.59    1.00
  YS02001783YS02001784 CONDUIT   1147.35     0  01:56      2.28    1.58    1.00
  YS02001784YS02001785 CONDUIT   1147.96     0  01:56      2.28    2.67    1.00
  YS02001788YS02001790 CONDUIT   1161.89     0  01:54      2.72    0.86    1.00
  YS02001790YS02001791 CONDUIT   1252.85     0  01:54      3.35    1.36    1.00
  YS02001791YS02001793 CONDUIT   1178.82     0  01:54      4.08    0.51    1.00
  YS02001910YS02001907 CONDUIT    631.73     0  01:55      0.80    0.36    1.00
  YS02001786YS02001788 CONDUIT   1147.91     0  01:56      2.46    2.21    1.00
  YS02001915YS02001910 CONDUIT    631.54     0  01:55      0.80    0.31    1.00
  YS02001918YS02001915 CONDUIT    330.03     0  01:55      0.48    0.18    1.00
  YS02001923YS02001920 CONDUIT    325.38     0  01:55      0.81    0.15    1.00
  YS02001926YS02001923 CONDUIT    280.58     0  01:54      0.92    0.40    1.00
  YS02001929YS02001926 CONDUIT    206.82     0  03:01      0.98    0.10    0.91
  YS02001920YS02001918 CONDUIT    329.16     0  01:55      0.77    0.32    1.00
  YS02001629YS02163301 CONDUIT    222.72     0  01:48      0.28    0.27    1.00
  YS02001619YS02001622 CONDUIT    389.37     0  02:16      0.74    0.57    1.00
  YS02001622YS02001625 CONDUIT    388.76     0  02:16      0.49    0.21    1.00
  YS02001625YS02001629 CONDUIT    222.90     0  01:48      0.29    0.11    1.00
  YS02163301YS02001633 CONDUIT    222.02     0  01:48      0.28    0.21    1.00
  YS02163601YS02164001 CONDUIT    458.26     0  01:48      0.58    0.41    1.00
  YS02164001YS02001641 CONDUIT    456.20     0  01:48      0.58    0.62    1.00
  YS02001641YS02001644 CONDUIT    457.15     0  01:48      0.58    1.48    1.00
  YS02001647YS02001649 CONDUIT    847.42     0  02:57      1.08    0.45    1.00
  YS02006553YS02006556 CONDUIT    718.17     0  03:36      0.91    0.61    1.00
  YS02006556YS02006558 CONDUIT    718.04     0  03:36      0.91    0.57    1.00
  YSB6556YSB1171       CONDUIT     46.62     0  01:54      0.14    0.05    0.84
  YS02001907YS02006553 CONDUIT    717.28     0  03:36      0.80    0.84    1.00
  YS02006558YS02006561 CONDUIT   1147.21     0  01:56      4.06    2.54    1.00
  YS02001633YS02163601 CONDUIT    459.09     0  01:48      0.58    0.48    1.00
  YS02001644YS02001647 CONDUIT    847.40     0  02:57      1.08    0.50    1.00
  YS02001745YS02001748 CONDUIT    450.96     0  02:15      1.67    0.17    0.99
  YS02001748YS02001751 CONDUIT    450.25     0  02:15      1.21    0.23    1.00
  YS02001751YS02001754 CONDUIT    449.78     0  02:15      1.02    0.22    1.00
  YS02001754YS02001757 CONDUIT    449.87     0  02:16      0.57    0.18    1.00
  YS02001882YS02001884 CONDUIT     26.83     0  01:49      0.16    0.03    1.00
  YS02001884YS02001887 CONDUIT     41.71     0  01:48      0.12    0.06    1.00
  YS02001890YS02001895 CONDUIT    556.94     0  01:53      0.71    0.26    1.00
  YS02001895YS02001898 CONDUIT    557.93     0  01:53      0.71    0.97    1.00
  YS02001898YS02001901 CONDUIT    557.57     0  01:53      0.71    0.36    1.00
  YS02001901YS02001904 CONDUIT    558.23     0  01:53      0.71    0.87    1.00
  YS02001904YS02001907 CONDUIT    558.23     0  01:53      0.71    0.20    1.00
  YS02001887YS02001890 CONDUIT    677.45     0  02:13      0.86    1.16    1.00
  YS02001652YS02001649 CONDUIT    521.48     0  02:10      0.71    0.26    1.00
  YS02001655YS02001652 CONDUIT    520.75     0  02:10      1.09    0.25    1.00
  YS02001658YS02001655 CONDUIT    519.07     0  02:10      1.41    0.22    1.00
  YS02001661YS02001658 CONDUIT    518.66     0  02:10      1.78    0.20    1.00
  YS02001664YS02001661 CONDUIT    756.39     0  01:55      1.69    0.24    0.77
  YSB1154YSB6556       CONDUIT     46.64     0  01:52      0.16    0.08    0.75
  YSB1174YSB1171       CONDUIT     38.38     0  01:50      0.11    0.06    0.87
  YSB1171HS02004479    CONDUIT     83.75     0  01:53      0.54    0.06    0.70
  HS02004881HS02006253 CONDUIT    153.29     0  01:54      2.46    0.03    0.54
  YS02001793JiankangQianchi CONDUIT   1173.71     0  01:54      1.69    0.09    1.00
  YS02001757CaochengTiaoxuchi CONDUIT   2149.63     0  01:55      3.55    0.94    1.00
  WSF200WS02003060     CONDUIT    953.25     0  01:54      2.06    0.21    0.44
  1                    CONDUIT   1256.25     0  02:01      3.53    0.44    0.46
  CC-Pump-1            PUMP         0.00     0  00:00              0.00
  CC-Pump-2            PUMP         0.00     0  00:00              0.00
  JK-Pump-1            PUMP       300.00     0  01:34              1.00
  JK-Pump-2            PUMP       683.00     0  01:39              1.00
  XR-Pump-1            PUMP        95.00     0  00:00              1.00
  XR-Pump-2            PUMP        95.00     0  00:25              1.00
  XR-Pump-3            PUMP        95.00     0  01:24              1.00
  XR-Pump-4            PUMP         0.00     0  00:00              0.00
  
  
  ***************************
  Flow Classification Summary
  ***************************
  
  -------------------------------------------------------------------------------------
                      Adjusted    ---------- Fraction of Time in Flow Class ---------- 
                       /Actual         Up    Down  Sub   Sup   Up    Down  Norm  Inlet 
  Conduit               Length    Dry  Dry   Dry   Crit  Crit  Crit  Crit  Ltd   Ctrl  
  -------------------------------------------------------------------------------------
  WS02003066WSF200        1.00   0.13  0.00  0.00  0.00  0.87  0.00  0.00  0.58  0.00
  WS02006287WS02006284    1.00   0.05  0.02  0.00  0.41  0.52  0.00  0.00  0.63  0.00
  WS02006284WS02006280    1.00   0.07  0.00  0.00  0.00  0.00  0.00  0.93  0.00  0.00
  WS02006280WS02006229    1.00   0.07  0.00  0.00  0.05  0.04  0.00  0.84  0.01  0.00
  WS02006229WS02006228    1.00   0.00  0.00  0.00  1.00  0.00  0.00  0.00  0.00  0.00
  WS02006256WS02006235    1.00   0.09  0.00  0.00  0.90  0.00  0.00  0.00  0.00  0.00
  WS02006253WS02006251    1.00   0.02  0.03  0.00  0.93  0.00  0.01  0.00  0.00  0.00
  WS02006252WS02006251    1.00   0.17  0.50  0.00  0.09  0.00  0.23  0.00  0.00  0.00
  WS02006251WS02006249    1.00   0.00  0.00  0.00  1.00  0.00  0.00  0.00  0.71  0.00
  WS02006249WS02006248    1.00   0.00  0.01  0.00  0.78  0.00  0.21  0.00  0.00  0.00
  WS02006248WS02006247    1.00   0.01  0.00  0.00  0.96  0.00  0.00  0.03  0.20  0.00
  WS02006247WS02006245    1.00   0.01  0.00  0.00  0.94  0.00  0.00  0.05  0.00  0.00
  WS02006245WS02006243    1.00   0.02  0.00  0.00  0.91  0.00  0.00  0.07  0.01  0.00
  WS02006243WS02006242    1.00   0.02  0.00  0.00  0.91  0.00  0.00  0.07  0.13  0.00
  WS02006242WS02006240    1.00   0.02  0.06  0.00  0.91  0.00  0.01  0.00  0.00  0.00
  WS02006240WS02006239    1.00   0.08  0.00  0.00  0.89  0.00  0.00  0.03  0.01  0.00
  WS02006239WS02006238    1.00   0.08  0.00  0.00  0.90  0.00  0.00  0.01  0.00  0.00
  WS02006238WS02006235    1.00   0.08  0.01  0.00  0.91  0.00  0.00  0.00  0.00  0.00
  WS02006235WS02006234    1.00   0.10  0.00  0.00  0.89  0.00  0.01  0.00  0.00  0.00
  WS02006234WS02006232    1.00   0.09  0.00  0.00  0.90  0.00  0.00  0.00  0.01  0.00
  WS02006232WS02006231    1.00   0.09  0.00  0.00  0.91  0.00  0.00  0.00  0.00  0.00
  WS02006231WS02006230    1.00   0.09  0.00  0.00  0.47  0.00  0.44  0.00  0.00  0.00
  WS02006230WS02006229    1.00   0.00  0.00  0.00  0.98  0.00  0.00  0.02  0.00  0.00
  WS02006228WS02006109    1.00   0.00  0.00  0.00  1.00  0.00  0.00  0.00  0.01  0.00
  WS02006116WS02004401    1.00   0.05  0.00  0.00  0.95  0.00  0.00  0.00  0.00  0.00
  WS02006115WS02006116    1.00   0.05  0.00  0.00  0.91  0.00  0.00  0.04  0.00  0.00
  WS02006113WS02006111    1.00   0.03  0.00  0.00  0.12  0.85  0.00  0.00  0.31  0.00
  WS02006112WS02006115    1.00   0.03  0.02  0.00  0.95  0.00  0.00  0.00  0.00  0.00
  WS02006111WS02006112    1.00   0.03  0.00  0.00  0.96  0.00  0.00  0.00  0.80  0.00
  WS02006110WS02006113    1.00   0.01  0.02  0.00  0.97  0.00  0.00  0.00  0.00  0.00
  WS02006109WS02006110    1.00   0.00  0.01  0.00  0.99  0.00  0.01  0.00  0.00  0.00
  WS02004411WS02004412    1.00   0.11  0.00  0.00  0.89  0.00  0.00  0.00  0.00  0.00
  WS02004401WS02004402    1.00   0.05  0.00  0.00  0.95  0.00  0.00  0.00  0.03  0.00
  WS02004413WS02003067    1.00   0.11  0.01  0.00  0.00  0.00  0.87  0.00  0.00  0.00
  WS02004412WS02004413    1.00   0.11  0.00  0.00  0.88  0.00  0.00  0.00  0.00  0.00
  WS02004410WS02004411    1.00   0.11  0.00  0.00  0.89  0.00  0.00  0.00  0.00  0.00
  WS02004409WS02004410    1.00   0.11  0.00  0.00  0.89  0.00  0.00  0.00  0.00  0.00
  WS02004407WS02004409    1.00   0.10  0.00  0.00  0.88  0.02  0.00  0.00  0.81  0.00
  WS02004406WS02004407    1.00   0.00  0.10  0.00  0.90  0.00  0.00  0.00  0.00  0.00
  WS02004405WS02004406    1.00   0.00  0.00  0.00  1.00  0.00  0.00  0.00  0.04  0.00
  WS02004404WS02004405    1.00   0.00  0.00  0.00  1.00  0.00  0.00  0.00  0.00  0.00
  WS02004403WS02004404    1.00   0.00  0.06  0.00  0.94  0.00  0.00  0.00  0.04  0.00
  WS02004402WS02004403    1.00   0.05  0.00  0.00  0.95  0.00  0.00  0.00  0.00  0.00
  WS02004139WS02001211    1.00   0.00  0.00  0.00  1.00  0.00  0.00  0.00  0.00  0.00
  WS02004138WS02004139    1.00   0.00  0.00  0.00  0.99  0.00  0.00  0.00  1.00  0.00
  WS02003067WS02003066    1.00   0.13  0.00  0.00  0.87  0.00  0.00  0.00  0.00  0.00
  WS02001213WS02003059    1.00   0.00  0.00  0.00  1.00  0.00  0.00  0.00  0.00  0.00
  WS02001212WS02001213    1.00   0.00  0.00  0.00  0.74  0.00  0.26  0.00  0.00  0.00
  WS02001211WS02001212    1.00   0.00  0.00  0.00  1.00  0.00  0.00  0.00  0.00  0.00
  WS02003072WS02003073    1.00   0.00  0.00  0.00  0.00  0.00  0.00  1.00  0.00  0.00
  WS02003069WS02003072    1.00   0.00  0.00  0.00  1.00  0.00  0.00  0.00  0.19  0.00
  WS02003060WS02003069    1.00   0.00  0.00  0.00  0.99  0.01  0.00  0.00  0.14  0.00
  WS02003059WS02003060    1.00   0.00  0.00  0.00  1.00  0.00  0.00  0.00  0.02  0.00
  HS02004901HS02004770    1.00   0.06  0.00  0.00  0.94  0.00  0.00  0.00  0.00  0.00
  HS02004876HS02004881    1.00   0.01  0.00  0.00  0.80  0.20  0.00  0.00  0.00  0.00
  HS02004870HS02004876    1.00   0.00  0.00  0.00  0.99  0.00  0.00  0.00  0.95  0.00
  HS02004842HS02004848    1.00   0.00  0.06  0.00  0.94  0.00  0.00  0.00  0.56  0.00
  HS02004837HS02004842    1.00   0.00  0.00  0.00  1.00  0.00  0.00  0.00  0.11  0.00
  HS02004830HS02004837    1.00   0.00  0.00  0.00  1.00  0.00  0.00  0.00  0.99  0.00
  HS02004824HS02004830    1.00   0.00  0.00  0.00  1.00  0.00  0.00  0.00  0.03  0.00
  HS02004817HS02004824    1.00   0.00  0.00  0.00  1.00  0.00  0.00  0.00  0.92  0.00
  HS02004770HS02004777    1.00   0.00  0.06  0.00  0.94  0.00  0.00  0.00  0.02  0.00
  HS02004799HS02004480    1.00   0.00  0.02  0.00  0.93  0.00  0.06  0.00  0.00  0.00
  HS02004792HS02004799    1.00   0.00  0.00  0.00  0.99  0.01  0.00  0.00  0.98  0.00
  HS02004788HS02004792    1.00   0.00  0.00  0.00  1.00  0.00  0.00  0.00  0.98  0.00
  HS02004785HS02004788    1.00   0.00  0.00  0.00  1.00  0.00  0.00  0.00  0.00  0.00
  HS02004777HS02004785    1.00   0.00  0.00  0.00  1.00  0.00  0.00  0.00  0.11  0.00
  HS02004480HS02004478    1.00   0.06  0.00  0.00  0.47  0.00  0.00  0.47  0.00  0.00
  HS02004479HS02004480    1.00   0.02  0.00  0.00  0.98  0.00  0.00  0.00  0.11  0.00
  HS02004862HS02004870    1.00   0.00  0.00  0.00  1.00  0.00  0.00  0.00  0.03  0.00
  HS02004848HS02004852    1.00   0.06  0.00  0.00  0.94  0.00  0.00  0.00  0.79  0.00
  HS02004856HS02004862    1.00   0.00  0.08  0.00  0.92  0.00  0.00  0.00  0.84  0.00
  HS02004852HS02004856    1.00   0.06  0.00  0.00  0.93  0.00  0.00  0.00  0.77  0.00
  HS02004802HS02004478    1.00   0.06  0.00  0.00  0.93  0.00  0.00  0.00  0.02  0.00
  HS02004478WS02006287    1.00   0.07  0.00  0.00  0.53  0.40  0.00  0.00  0.62  0.00
  HS02004817HS02004807    1.00   0.00  0.06  0.00  0.94  0.00  0.00  0.00  0.01  0.00
  HS02004807HS02004802    1.00   0.06  0.00  0.00  0.93  0.00  0.00  0.01  0.00  0.00
  YS02001759YS02001757    1.00   0.00  0.00  0.00  1.00  0.00  0.00  0.00  0.15  0.00
  YS02001762YS02001759    1.00   0.00  0.00  0.00  1.00  0.00  0.00  0.00  0.02  0.00
  YS02001765YS02001762    1.00   0.00  0.00  0.00  1.00  0.00  0.00  0.00  0.13  0.00
  YS02001770YS02001767    1.00   0.00  0.00  0.00  1.00  0.00  0.00  0.00  0.00  0.00
  YS02001774YS02001770    1.00   0.00  0.06  0.00  0.94  0.00  0.00  0.00  0.02  0.00
  YS02001779YS02001774    1.00   0.00  0.00  0.00  1.00  0.00  0.00  0.00  0.17  0.00
  YS02001649YS02001757    1.00   0.00  0.00  0.00  1.00  0.00  0.00  0.00  0.15  0.00
  YS02001767YS02001765    1.00   0.00  0.00  0.00  1.00  0.00  0.00  0.00  0.00  0.00
  YS02006561YS02001783    1.00   0.08  0.00  0.00  0.43  0.49  0.00  0.00  0.42  0.00
  YS02001783YS02001784    1.00   0.00  0.08  0.00  0.92  0.00  0.00  0.00  0.00  0.00
  YS02001784YS02001785    1.00   0.00  0.00  0.00  1.00  0.00  0.00  0.00  0.16  0.00
  YS02001788YS02001790    1.00   0.00  0.00  0.00  0.45  0.55  0.00  0.00  0.40  0.00
  YS02001790YS02001791    1.00   0.00  0.00  0.00  0.37  0.63  0.00  0.00  0.55  0.00
  YS02001791YS02001793    1.00   0.00  0.00  0.00  0.58  0.42  0.00  0.00  0.30  0.00
  YS02001910YS02001907    1.00   0.00  0.00  0.00  0.99  0.00  0.00  0.01  0.12  0.00
  YS02001786YS02001788    1.00   0.00  0.00  0.00  0.47  0.53  0.00  0.00  0.00  0.00
  YS02001915YS02001910    1.00   0.00  0.00  0.00  0.99  0.01  0.00  0.00  0.13  0.00
  YS02001918YS02001915    1.00   0.00  0.00  0.00  0.99  0.01  0.00  0.00  0.50  0.00
  YS02001923YS02001920    1.00   0.00  0.00  0.00  1.00  0.00  0.00  0.00  0.74  0.00
  YS02001926YS02001923    1.00   0.00  0.04  0.00  0.37  0.00  0.60  0.00  0.00  0.00
  YS02001929YS02001926    1.00   0.00  0.06  0.00  0.94  0.00  0.00  0.00  0.65  0.00
  YS02001920YS02001918    1.00   0.00  0.00  0.00  1.00  0.00  0.00  0.00  0.00  0.00
  YS02001629YS02163301    1.00   0.07  0.00  0.00  0.93  0.00  0.00  0.00  0.00  0.00
  YS02001619YS02001622    1.00   0.06  0.00  0.00  0.94  0.00  0.00  0.00  0.00  0.00
  YS02001622YS02001625    1.00   0.06  0.00  0.00  0.94  0.00  0.00  0.00  0.03  0.00
  YS02001625YS02001629    1.00   0.06  0.02  0.00  0.89  0.00  0.03  0.00  0.00  0.00
  YS02163301YS02001633    1.00   0.00  0.07  0.00  0.93  0.00  0.00  0.00  0.00  0.00
  YS02163601YS02164001    1.00   0.00  0.04  0.00  0.96  0.00  0.00  0.00  0.00  0.00
  YS02164001YS02001641    1.00   0.00  0.04  0.00  0.96  0.00  0.00  0.00  0.06  0.00
  YS02001641YS02001644    1.00   0.00  0.00  0.00  1.00  0.00  0.00  0.00  0.00  0.00
  YS02001647YS02001649    1.00   0.00  0.08  0.00  0.92  0.00  0.00  0.00  0.01  0.00
  YS02006553YS02006556    1.00   0.01  0.00  0.00  0.99  0.00  0.00  0.00  0.03  0.00
  YS02006556YS02006558    1.00   0.00  0.00  0.00  1.00  0.00  0.00  0.00  0.00  0.00
  YSB6556YSB1171          1.00   0.02  0.04  0.00  0.94  0.00  0.00  0.00  0.00  0.00
  YS02001907YS02006553    1.00   0.00  0.01  0.00  0.99  0.00  0.00  0.00  0.00  0.00
  YS02006558YS02006561    1.00   0.08  0.00  0.00  0.36  0.56  0.00  0.00  0.46  0.00
  YS02001633YS02163601    1.00   0.00  0.00  0.00  1.00  0.00  0.00  0.00  0.15  0.00
  YS02001644YS02001647    1.00   0.00  0.08  0.00  0.92  0.00  0.00  0.00  0.00  0.00
  YS02001745YS02001748    1.00   0.00  0.00  0.00  0.87  0.01  0.00  0.13  0.01  0.00
  YS02001748YS02001751    1.00   0.00  0.00  0.00  0.95  0.05  0.00  0.00  0.14  0.00
  YS02001751YS02001754    1.00   0.00  0.00  0.00  0.91  0.00  0.00  0.09  0.01  0.00
  YS02001754YS02001757    1.00   0.00  0.00  0.00  1.00  0.00  0.00  0.00  0.17  0.00
  YS02001882YS02001884    1.00   0.07  0.00  0.00  0.93  0.00  0.00  0.00  0.00  0.00
  YS02001884YS02001887    1.00   0.03  0.03  0.00  0.95  0.00  0.00  0.00  0.00  0.00
  YS02001890YS02001895    1.00   0.00  0.07  0.00  0.93  0.00  0.00  0.00  0.00  0.00
  YS02001895YS02001898    1.00   0.07  0.00  0.00  0.91  0.00  0.01  0.00  0.00  0.00
  YS02001898YS02001901    1.00   0.07  0.00  0.00  0.93  0.00  0.00  0.00  0.01  0.00
  YS02001901YS02001904    1.00   0.07  0.00  0.00  0.93  0.00  0.00  0.00  0.00  0.00
  YS02001904YS02001907    1.00   0.00  0.07  0.00  0.93  0.00  0.00  0.00  0.00  0.00
  YS02001887YS02001890    1.00   0.00  0.00  0.00  0.99  0.00  0.01  0.00  0.00  0.00
  YS02001652YS02001649    1.00   0.00  0.00  0.00  1.00  0.00  0.00  0.00  0.15  0.00
  YS02001655YS02001652    1.00   0.00  0.00  0.00  0.91  0.00  0.00  0.09  0.01  0.00
  YS02001658YS02001655    1.00   0.00  0.07  0.00  0.89  0.04  0.00  0.00  0.02  0.00
  YS02001661YS02001658    1.00   0.07  0.00  0.00  0.86  0.07  0.00  0.00  0.01  0.00
  YS02001664YS02001661    1.00   0.06  0.00  0.00  0.88  0.06  0.00  0.00  0.10  0.00
  YSB1154YSB6556          1.00   0.06  0.00  0.00  0.94  0.00  0.00  0.00  0.01  0.00
  YSB1174YSB1171          1.00   0.02  0.02  0.00  0.95  0.00  0.00  0.00  0.00  0.00
  YSB1171HS02004479       1.00   0.02  0.00  0.00  0.97  0.00  0.00  0.01  0.10  0.00
  HS02004881HS02006253    1.00   0.03  0.00  0.00  0.14  0.05  0.00  0.78  0.12  0.00
  YS02001793JiankangQianchi    1.00   0.00  0.00  0.00  1.00  0.00  0.00  0.00  0.38  0.00
  YS02001757CaochengTiaoxuchi    1.00   0.00  0.11  0.00  0.84  0.05  0.00  0.00  0.00  0.00
  WSF200WS02003060        1.00   0.00  0.13  0.00  0.77  0.09  0.00  0.00  0.51  0.00
  1                       1.00   0.00  0.00  0.00  0.00  1.00  0.00  0.00  0.52  0.00
  
  
  *************************
  Conduit Surcharge Summary
  *************************
  
  ----------------------------------------------------------------------------
                                                           Hours        Hours 
                         --------- Hours Full --------   Above Full   Capacity
  Conduit                Both Ends  Upstream  Dnstream   Normal Flow   Limited
  ----------------------------------------------------------------------------
  WS02006229WS02006228        1.79      1.81      1.79      2.38         1.79
  WS02006256WS02006235        5.69      5.72      6.32      5.26         0.01
  WS02006253WS02006251        0.55      0.55      0.57      0.01         0.01
  WS02006252WS02006251        0.15      0.15      0.41      0.01         0.01
  WS02006251WS02006249        0.56      0.56      0.59      0.01         0.01
  WS02006249WS02006248        0.58      0.58      0.59      0.01         0.01
  WS02006248WS02006247        0.60      0.60      0.65      0.01         0.01
  WS02006247WS02006245        0.66      0.66      0.66      0.01         0.25
  WS02006245WS02006243        0.67      0.67      0.72      0.01         0.01
  WS02006243WS02006242        0.74      0.74      0.92      0.01         0.01
  WS02006242WS02006240        0.91      0.91      1.00      0.01         0.01
  WS02006240WS02006239        0.94      0.94      1.05      0.01         0.01
  WS02006239WS02006238        1.24      1.24      1.48      0.01         0.01
  WS02006238WS02006235        1.48      1.48      1.52      0.01         0.03
  WS02006235WS02006234        1.27      1.27      1.46      5.48         0.02
  WS02006234WS02006232        1.44      1.44      1.62      0.01         0.01
  WS02006232WS02006231        1.09      1.09      1.62      0.01         0.01
  WS02006231WS02006230        0.99      0.99      1.14      5.89         0.01
[...]
  YS02001779YS02001774        6.13      6.13      6.19      0.01         0.01
  YS02001649YS02001757        6.19      6.19      6.23      0.01         0.01
  YS02001767YS02001765        6.18      6.18      6.18      0.01         0.01
  YS02006561YS02001783        1.65      1.65      1.89      0.01         0.01
  YS02001783YS02001784        1.86      1.89      1.86      2.16         1.86
  YS02001784YS02001785        1.75      1.86      1.75      2.91         1.75
  YS02001788YS02001790        1.59      1.59      1.69      0.01         0.01
  YS02001790YS02001791        1.68      1.69      1.68      1.85         1.68
  YS02001791YS02001793        1.68      1.68      2.07      0.01         0.01
  YS02001910YS02001907        1.93      1.93      2.40      0.01         0.01
  YS02001786YS02001788        1.59      1.75      1.59      2.54         1.59
  YS02001915YS02001910        1.79      1.79      1.93      0.01         0.01
  YS02001918YS02001915        1.64      1.64      1.79      0.01         0.01
  YS02001923YS02001920        1.47      1.47      1.66      0.01         0.01
  YS02001926YS02001923        0.01      0.01      0.01      0.01         0.01
  YS02001929YS02001926        0.01      0.01      0.01      0.01         0.01
  YS02001920YS02001918        1.64      1.64      1.66      0.01         0.01
  YS02001629YS02163301        6.16      6.16      6.17      0.01         0.01
  YS02001619YS02001622        6.09      6.09      6.10      0.01         0.03
  YS02001622YS02001625        6.10      6.10      6.16      0.01         0.01
  YS02001625YS02001629        6.09      6.09      6.16      0.01         0.01
  YS02163301YS02001633        6.17      6.17      6.18      0.01         0.01
  YS02163601YS02164001        6.17      6.17      6.20      0.01         0.01
  YS02164001YS02001641        6.17      6.17      6.18      0.01         0.02
  YS02001641YS02001644        6.18      6.18      6.18      2.38         2.15
  YS02001647YS02001649        6.15      6.15      6.19      0.01         0.01
  YS02006553YS02006556        2.11      2.11      2.49      0.01         0.01
  YS02006556YS02006558        2.22      2.22      2.55      0.01         0.01
  YSB6556YSB1171              0.01      0.01      0.30      0.01         0.01
  YS02001907YS02006553        2.94      2.94      3.16      0.01         0.01
  YS02006558YS02006561        1.74      2.08      1.74      2.78         1.74
  YS02001633YS02163601        6.17      6.17      6.20      0.01         0.01
  YS02001644YS02001647        6.15      6.15      6.18      0.01         0.01
  YS02001745YS02001748        0.01      0.01      6.04      0.01         0.01
  YS02001748YS02001751        6.05      6.05      6.08      0.01         0.01
  YS02001751YS02001754        6.08      6.08      6.14      0.01         0.01
  YS02001754YS02001757        6.15      6.15      6.23      0.01         0.01
  YS02001882YS02001884        1.80      1.80      1.82      0.01         0.01
  YS02001884YS02001887        1.86      1.86      1.87      0.01         0.01
  YS02001890YS02001895        1.78      1.78      1.95      0.01         0.01
  YS02001895YS02001898        1.77      1.77      1.78      0.01         0.01
  YS02001898YS02001901        1.78      1.78      1.85      0.01         0.01
  YS02001901YS02001904        1.83      1.83      1.85      0.01         0.01
  YS02001904YS02001907        1.83      1.83      2.51      0.01         0.01
  YS02001887YS02001890        1.89      1.89      1.92      0.52         0.01
  YS02001652YS02001649        6.16      6.16      6.19      0.01         0.01
  YS02001655YS02001652        6.10      6.10      6.15      0.01         0.01
  YS02001658YS02001655        6.05      6.05      6.10      0.01         0.01
  YS02001661YS02001658        0.14      0.14      6.05      0.01         0.01
  YS02001664YS02001661        0.01      0.01      1.39      0.01         0.01
  HS02004881HS02006253        0.01      0.01      0.37      0.01         0.01
  YS02001793JiankangQianchi        1.80      1.80      7.82      0.01         0.01
  YS02001757CaochengTiaoxuchi        5.75      5.75      6.23      0.01         0.01
  
  
  ***************
  Pumping Summary
  ***************
  
  ---------------------------------------------------------------------------------------------------------
                                                  Min       Avg       Max     Total     Power    % Time Off
                        Percent   Number of      Flow      Flow      Flow    Volume     Usage    Pump Curve
  Pump                 Utilized   Start-Ups       LPS       LPS       LPS  10^6 ltr     Kw-hr    Low   High
  ---------------------------------------------------------------------------------------------------------
  CC-Pump-1                0.00           0      0.00      0.00      0.00     0.000      0.00    0.0    0.0
  CC-Pump-2                0.00           0      0.00      0.00      0.00     0.000      0.00    0.0    0.0
  JK-Pump-1               67.04           7      0.00    300.00    300.00     5.671     56.29    0.0    0.0
  JK-Pump-2               30.78          24      0.00    683.00    683.00     5.928     49.32    0.0  100.0
  XR-Pump-1              100.00           1      0.00     95.00     95.00     2.679     14.36    0.0    0.0
  XR-Pump-2               94.70           1      0.00     95.00     95.00     2.537     12.93    0.0    0.0
  XR-Pump-3               81.95           1      0.00     95.00     95.00     2.195     10.25    0.0    0.0
  XR-Pump-4                0.00           0      0.00      0.00      0.00     0.000      0.00    0.0    0.0
  
  
  ***************************
  Link Pollutant Load Summary
  ***************************
  
  ------------------------------------------------------------------------------------------
                                 COD            SS            TN            TP         NH4-N
  Link                            kg            kg            kg            kg            kg
  ------------------------------------------------------------------------------------------
  WS02003066WSF200           916.984      1744.128        23.456         2.030        12.263
  WS02006287WS02006284       438.053       854.466        12.584         1.181         6.761
  WS02006284WS02006280       438.547       855.257        12.631         1.186         6.791
  WS02006280WS02006229       438.552       855.295        12.629         1.186         6.789
  WS02006229WS02006228       907.779      1722.556        23.204         2.000        12.124
  WS02006256WS02006235       413.693       754.783         9.472         0.738         4.808
  WS02006253WS02006251        76.562       155.005         1.595         0.115         0.778
  WS02006252WS02006251         0.239         0.504         0.005         0.000         0.002
  WS02006251WS02006249        77.212       156.110         1.647         0.122         0.810
  WS02006249WS02006248        63.984       127.963         1.404         0.105         0.694
  WS02006248WS02006247        60.466       120.349         1.340         0.101         0.664
  WS02006247WS02006245        61.477       121.987         1.376         0.104         0.684
  WS02006245WS02006243        63.423       125.439         1.427         0.108         0.710
  WS02006243WS02006242        67.089       131.704         1.521         0.116         0.758
  WS02006242WS02006240        71.928       139.467         1.665         0.128         0.835
  WS02006240WS02006239        76.926       147.499         1.828         0.143         0.924
  WS02006239WS02006238        81.891       155.367         1.995         0.158         1.016
  WS02006238WS02006235        84.802       159.872         2.092         0.167         1.069
  WS02006235WS02006234       470.509       868.952        10.650         0.822         5.379
  WS02006234WS02006232       470.447       868.952        10.645         0.821         5.376
  WS02006232WS02006231       470.148       868.468        10.636         0.821         5.371
  WS02006231WS02006230       470.272       868.721        10.641         0.821         5.374
  WS02006230WS02006229       471.428       871.111        10.668         0.824         5.388
  WS02006228WS02006109       907.001      1721.397        23.161         1.995        12.099
  WS02006116WS02004401       927.844      1761.488        23.987         2.087        12.574
  WS02006115WS02006116       928.569      1762.527        24.036         2.093        12.603
  WS02006113WS02006111       913.094      1731.118        23.849         2.083        12.533
  WS02006112WS02006115       929.533      1764.082        24.092         2.099        12.637
  WS02006111WS02006112       912.983      1731.070        23.836         2.082        12.524
  WS02006110WS02006113       913.583      1731.966        23.871         2.086        12.546
  WS02006109WS02006110       914.743      1733.868        23.939         2.093        12.586
  WS02004411WS02004412       919.869      1748.845        23.607         2.047        12.352
  WS02004401WS02004402       926.693      1759.633        23.923         2.080        12.536
  WS02004413WS02003067       917.693      1745.324        23.486         2.033        12.280
  WS02004412WS02004413       918.971      1747.450        23.558         2.042        12.323
  WS02004410WS02004411       920.564      1749.938        23.643         2.051        12.374
  WS02004409WS02004410       921.195      1750.931        23.678         2.055        12.394
  WS02004407WS02004409       921.737      1751.756        23.707         2.058        12.412
  WS02004406WS02004407       921.972      1752.099        23.718         2.059        12.418
  WS02004405WS02004406       924.159      1755.672        23.852         2.075        12.499
  WS02004404WS02004405       925.033      1756.987        23.881         2.077        12.514
  WS02004403WS02004404       924.607      1756.303        23.810         2.068        12.469
  WS02004402WS02004403       925.644      1757.989        23.864         2.074        12.501
  WS02004139WS02001211       993.826      1686.163        74.196         8.944        45.413
  WS02004138WS02004139       998.135      1693.519        74.495         8.980        45.594
  WS02003067WS02003066       917.065      1744.264        23.460         2.031        12.266
  WS02001213WS02003059      1030.924      1744.532        78.004         9.424        47.804
  WS02001212WS02001213      1036.713      1754.366        78.420         9.474        48.057
  WS02001211WS02001212      1038.953      1757.990        78.623         9.499        48.184
  WS02003072WS02003073      2049.956      3651.303       111.480        12.711        66.340
  WS02003069WS02003072      2054.577      3658.662       111.914        12.765        66.611
  WS02003060WS02003069      2055.912      3660.981       111.978        12.772        66.648
  WS02003059WS02003060      1028.666      1740.657        77.853         9.406        47.713
  HS02004901HS02004770        19.398        38.439         0.369         0.028         0.174
  HS02004876HS02004881        64.840       131.149         1.382         0.100         0.674
  HS02004870HS02004876        49.299        99.614         1.094         0.080         0.536
  HS02004842HS02004848         9.278        18.136         0.191         0.013         0.089
  HS02004837HS02004842        13.926        25.526         0.662         0.072         0.384
  HS02004830HS02004837        81.313       145.739         4.858         0.568         2.931
  HS02004824HS02004830        82.104       147.040         4.931         0.577         2.976
  HS02004817HS02004824       118.564       221.805         5.667         0.624         3.333
  HS02004770HS02004777        73.683       147.822         1.507         0.104         0.700
  HS02004799HS02004480       235.073       460.617         5.678         0.484         2.882
  HS02004792HS02004799       214.136       417.317         5.330         0.464         2.722
  HS02004788HS02004792       116.312       227.332         3.333         0.303         1.755
  HS02004785HS02004788        75.098       150.083         1.653         0.123         0.793
  HS02004777HS02004785        74.429       149.012         1.592         0.115         0.755
  HS02004480HS02004478       294.410       579.894         6.703         0.559         3.370
  HS02004479HS02004480        62.982       125.164         1.336         0.113         0.681
  HS02004862HS02004870        37.531        74.846         0.862         0.066         0.425
  HS02004848HS02004852        15.822        31.381         0.320         0.022         0.149
  HS02004856HS02004862        25.850        52.196         0.514         0.035         0.242
  HS02004852HS02004856        15.835        31.403         0.320         0.022         0.149
  HS02004802HS02004478       144.585       276.092         5.947         0.629         3.432
  HS02004478WS02006287       438.209       854.696        12.601         1.183         6.772
  HS02004817HS02004807       117.200       219.652         5.526         0.607         3.245
  HS02004807HS02004802       144.753       276.349         5.979         0.633         3.453
  YS02001759YS02001757       360.455       684.616         7.014         0.493         3.421
  YS02001762YS02001759       267.854       506.488         5.345         0.378         2.619
  YS02001765YS02001762       269.909       511.658         5.398         0.382         2.647
  YS02001770YS02001767       276.665       528.120         5.416         0.375         2.637
  YS02001774YS02001770       529.249      1029.356        10.256         0.691         4.967
  YS02001779YS02001774       528.822      1028.598        10.324         0.702         5.014
  YS02001649YS02001757       564.683      1055.724        11.347         0.773         5.489
  YS02001767YS02001765       272.878       518.669         5.463         0.387         2.680
  YS02006561YS02001783      1284.398      2426.508        26.433         1.950        13.077
  YS02001783YS02001784      1284.337      2426.429        26.429         1.950        13.074
  YS02001784YS02001785      1291.735      2438.316        27.143         2.039        13.521
  YS02001788YS02001790      1292.413      2439.458        27.215         2.049        13.567
  YS02001790YS02001791      1293.477      2441.264        27.314         2.061        13.628
  YS02001791YS02001793      1293.381      2441.030        27.314         2.061        13.628
  YS02001910YS02001907       564.324      1065.677        12.708         0.936         6.411
  YS02001786YS02001788      1292.011      2438.820        27.171         2.043        13.539
  YS02001915YS02001910       564.329      1065.658        12.664         0.930         6.381
  YS02001918YS02001915       275.808       499.946         6.802         0.585         3.573
  YS02001923YS02001920       251.546       458.945         4.786         0.339         2.325
  YS02001926YS02001923       249.013       454.519         4.675         0.327         2.260
  YS02001929YS02001926       247.577       452.023         4.609         0.320         2.221
  YS02001920YS02001918       272.463       492.867         6.723         0.580         3.532
  YS02001629YS02163301        89.786       159.526         1.896         0.125         0.889
  YS02001619YS02001622       259.401       485.275         5.244         0.348         2.461
  YS02001622YS02001625       258.441       483.770         5.219         0.346         2.450
  YS02001625YS02001629        86.832       153.660         1.850         0.121         0.866
  YS02163301YS02001633        94.643       169.054         1.973         0.131         0.928
  YS02163601YS02164001       529.144       976.737        10.167         0.735         4.887
  YS02164001YS02001641       529.082       976.632        10.155         0.733         4.880
  YS02001641YS02001644       530.113       978.367        10.167         0.734         4.885
  YS02001647YS02001649       729.167      1361.939        14.708         1.015         7.061
  YS02006553YS02006556       803.153      1499.003        16.997         1.285         8.506
  YS02006556YS02006558       803.471      1499.599        16.965         1.280         8.483
  YSB6556YSB1171              36.521        72.732         0.718         0.059         0.359
  YS02001907YS02006553       803.029      1498.781        17.023         1.289         8.524
  YS02006558YS02006561      1284.344      2426.400        26.432         1.950        13.076
  YS02001633YS02163601       529.712       977.621        10.143         0.730         4.869
  YS02001644YS02001647       735.719      1374.990        14.809         1.022         7.109
  YS02001745YS02001748       354.043       679.930         6.988         0.437         3.357
  YS02001748YS02001751       353.366       678.787         6.996         0.440         3.365
  YS02001751YS02001754       352.474       677.331         6.982         0.440         3.360
  YS02001754YS02001757       353.313       678.599         7.148         0.462         3.467
  YS02001882YS02001884         4.040         7.177         0.077         0.006         0.038
  YS02001884YS02001887         7.667        13.858         0.145         0.011         0.071
  YS02001890YS02001895       615.980      1177.778        11.382         0.860         5.553
  YS02001895YS02001898       615.878      1177.685        11.376         0.859         5.550
  YS02001898YS02001901       615.707      1177.356        11.373         0.859         5.548
  YS02001901YS02001904       615.662      1177.332        11.383         0.861         5.556
  YS02001904YS02001907       616.010      1177.859        11.441         0.868         5.593
  YS02001887YS02001890       669.316      1284.465        12.357         0.936         6.032
  YS02001652YS02001649       327.494       618.018         6.547         0.472         3.073
  YS02001655YS02001652       328.405       619.463         6.571         0.474         3.085
  YS02001658YS02001655       328.286       619.260         6.495         0.463         3.033
  YS02001661YS02001658       329.171       620.683         6.516         0.464         3.043
  YS02001664YS02001661       328.752       619.590         6.513         0.464         3.041
  YSB1154YSB6556              36.101        72.067         0.671         0.053         0.330
  YSB1174YSB1171              24.947        50.012         0.489         0.039         0.242
  YSB1171HS02004479           62.904       125.018         1.341         0.114         0.685
  HS02004881HS02006253        73.001       148.067         1.534         0.110         0.748
  YS02001793JiankangQianchi      1295.097      2443.891        27.351         2.064        13.646
  YS02001757CaochengTiaoxuchi       509.972       986.073         9.502         0.655         4.553
  WSF200WS02003060           916.539      1743.375        23.438         2.029        12.253
  1                         2058.114      3663.429       112.513        12.844        66.996
  CC-Pump-1                    0.000         0.000         0.000         0.000         0.000
  CC-Pump-2                    0.000         0.000         0.000         0.000         0.000
  JK-Pump-1                  540.256       992.286        12.192         0.946         6.172
  JK-Pump-2                  742.589      1432.011        14.718         1.076         7.230
  XR-Pump-1                  354.543       599.508        26.910         3.253        16.496
  XR-Pump-2                  347.502       588.243        26.234         3.168        16.074
  XR-Pump-3                  298.103       509.204        21.492         2.576        13.110
  XR-Pump-4                    0.000         0.000         0.000         0.000         0.000
  

  Analysis begun on:  Mon Aug  9 16:33:03 2021
  Analysis ended on:  Mon Aug  9 16:33:05 2021
  Total elapsed time: 00:00:02