
  EPA STORM WATER MANAGEMENT MODEL - VERSION 5.1 (Build 5.3.0.dev0)
  --------------------------------------------------------------

  WARNING 09: time series interval greater than recording interval for Rain Gage RG1
  WARNING 09: time series interval greater than recording interval for Rain Gage RG2
  WARNING 09: time series interval greater than recording interval for Rain Gage RG3
  WARNING 09: time series interval greater than recording interval for Rain Gage RG4
  
  *********************************************************
  NOTE: The summary statistics displayed in this report are
  based on results found at every computational time step,  
  not just on results from each reporting time step.
  *********************************************************
  
  ****************
  Analysis Options
  ****************
  Flow Units ............... CMS
  Process Models:
    Rainfall/Runoff ........ YES
    RDII ................... NO
    Snowmelt ............... NO
    Groundwater ............ NO
    Flow Routing ........... YES
    Ponding Allowed ........ YES
    Water Quality .......... NO
  Infiltration Method ...... HORTON
  Flow Routing Method ...... DYNWAVE
  Surcharge Method ......... EXTRAN
  Starting Date ............ 08/28/2015 00:00:00
  Ending Date .............. 08/28/2015 23:50:00
  Antecedent Dry Days ...... 0.0
  Report Time Step ......... 00:01:00
  Wet Time Step ............ 00:01:00
  Dry Time Step ............ 00:01:00
  Routing Time Step ........ 5.00 sec
  Variable Time Step ....... YES
  Maximum Trials ........... 8
  Number of Threads ........ 1
  Head Tolerance ........... 0.001500 m
  
  
  **************************        Volume         Depth
  Runoff Quantity Continuity     hectare-m            mm
  **************************     ---------       -------
  Total Precipitation ......         2.279        12.646
  Evaporation Loss .........         0.000         0.000
  Infiltration Loss ........         0.000         0.000
  Surface Runoff ...........         2.105        11.682
  Final Storage ............         0.177         0.982
  Continuity Error (%) .....        -0.147
  
  
  **************************        Volume        Volume
  Flow Routing Continuity        hectare-m      10^6 ltr
  **************************     ---------     ---------
  Dry Weather Inflow .......         0.759         7.586
  Wet Weather Inflow .......         2.102        21.025
  Groundwater Inflow .......         0.000         0.000
  RDII Inflow ..............         0.000         0.000
  External Inflow ..........         0.000         0.000
  External Outflow .........         0.980         9.804
  Flooding Loss ............         0.715         7.147
  Evaporation Loss .........         0.000         0.000
  Exfiltration Loss ........         0.000         0.000
  Initial Stored Volume ....         0.000         0.000
  Final Stored Volume ......         0.858         8.583
  Continuity Error (%) .....        10.755
  
  
  *************************
  Highest Continuity Errors
  *************************
  Node T2 (25.35%)
  Node T3 (18.32%)
  Node T4 (16.68%)
  Node T5 (15.62%)
  Node T6 (13.33%)
  
  
  ***************************
  Time-Step Critical Elements
  ***************************
  None
  
  
  ********************************
  Highest Flow Instability Indexes
  ********************************
  Link C15 (1)
  Link C20 (1)
  
  
  *************************
  Routing Time Step Summary
  *************************
  Minimum Time Step           :     3.50 sec
  Average Time Step           :     5.00 sec
  Maximum Time Step           :     5.00 sec
  Percent in Steady State     :     0.00
  Average Iterations per Step :     2.00
  Percent Not Converging      :     0.00
  
  
  ***************************
  Subcatchment Runoff Summary
  ***************************
  
  ------------------------------------------------------------------------------------------------------------------------------
                            Total      Total      Total      Total     Imperv       Perv      Total       Total     Peak  Runoff
                           Precip      Runon       Evap      Infil     Runoff     Runoff     Runoff      Runoff   Runoff   Coeff
  Subcatchment                 mm         mm         mm         mm         mm         mm         mm    10^6 ltr      CMS
  ------------------------------------------------------------------------------------------------------------------------------
  SC01                      14.29       0.00       0.00       0.00      13.50       0.00      13.50        4.45     0.31   0.945
  SC02                      13.18       0.00       0.00       0.00      12.42       0.00      12.42        2.83     0.19   0.943
  SC03                      10.84       0.00       0.00       0.00      10.16       0.00      10.16        1.83     0.19   0.937
  SC04                      13.18       0.00       0.00       0.00      11.92       0.00      11.92        0.82     0.05   0.905
  SC05                      14.29       0.00       0.00       0.00      13.45       0.00      13.45        2.10     0.14   0.941
  SC06                      11.77       0.00       0.00       0.00      10.50       0.00      10.50        3.42     0.17   0.892
  SC07                      13.18       0.00       0.00       0.00      11.92       0.00      11.92        0.57     0.03   0.905
  SC08                      10.84       0.00       0.00       0.00       9.75       0.00       9.75        2.73     0.23   0.899
  SC09                      11.77       0.00       0.00       0.00      10.80       0.00      10.80        0.75     0.05   0.918
  SC010                     14.29       0.00       0.00       0.00      13.31       0.00      13.31        1.56     0.10   0.931
  
  
  ******************
  Node Depth Summary
  ******************
  
  ---------------------------------------------------------------------------------
                                 Average  Maximum  Maximum  Time of Max    Reported
                                   Depth    Depth      HGL   Occurrence   Max Depth
  Node                 Type       Meters   Meters   Meters  days hr:min      Meters
  ---------------------------------------------------------------------------------
  J1                   JUNCTION     0.06     0.13    34.13     0  13:47        0.13
  J3                   JUNCTION     0.04     0.12    18.12     0  23:49        0.12
  CSO7                 JUNCTION     0.08     0.15    34.15     0  18:01        0.15
  J5                   JUNCTION     0.05     0.10    32.10     0  18:12        0.10
  CSO9                 JUNCTION     0.08     0.20    40.20     0  13:52        0.20
  J8                   JUNCTION     0.08     0.16    36.16     0  14:22        0.16
  CSO8                 JUNCTION     0.08     0.32    32.32     0  15:01        0.31
  J10                  JUNCTION     0.07     0.19    29.19     0  15:03        0.19
  J13                  JUNCTION     0.05     0.12    29.12     0  18:02        0.12
  J15                  JUNCTION     0.11     0.25    15.25     0  18:03        0.25
  J16                  JUNCTION     0.06     0.14    30.14     0  13:47        0.14
  CSO10                JUNCTION     0.10     0.26    30.26     0  17:56        0.26
  J12                  JUNCTION     0.17     0.83    26.83     0  23:49        0.82
  J4                   JUNCTION     0.09     0.18    33.18     0  18:13        0.18
  J6                   JUNCTION     0.03     0.07    25.07     0  16:39        0.07
  J2                   JUNCTION     0.00     0.00    25.00     0  00:00        0.00
  J19                  JUNCTION     0.09     0.17     8.17     0  17:10        0.17
  J9                   JUNCTION     0.04     0.11    29.11     0  16:55        0.11
  J14                  JUNCTION     0.05     0.15    20.15     0  23:49        0.15
  J17                  JUNCTION     0.03     0.08    20.08     0  19:08        0.08
  J7                   JUNCTION     0.06     0.14    39.14     0  13:58        0.14
  J11                  JUNCTION     0.07     0.20    31.20     0  15:03        0.20
  J18                  JUNCTION     0.05     0.11    29.11     0  17:58        0.11
  Out_to_WWTP          OUTFALL      0.09     0.17     6.17     0  21:49        0.17
  T5                   STORAGE      2.73     5.00    32.00     0  14:12        5.00
  T4                   STORAGE      2.52     5.00    32.00     0  15:54        5.00
  T6                   STORAGE      2.98     5.00    36.00     0  13:43        5.00
  T3                   STORAGE      1.77     4.83    26.83     0  23:49        4.82
  T2                   STORAGE      2.09     5.00    26.00     0  18:14        5.00
  T1                   STORAGE      1.84     5.00    15.00     0  17:09        5.00
  
  
  *******************
  Node Inflow Summary
  *******************
  
  -------------------------------------------------------------------------------------------------
                                  Maximum  Maximum                  Lateral       Total        Flow
                                  Lateral    Total  Time of Max      Inflow      Inflow     Balance
                                   Inflow   Inflow   Occurrence      Volume      Volume       Error
  Node                 Type           CMS      CMS  days hr:min    10^6 ltr    10^6 ltr     Percent
  -------------------------------------------------------------------------------------------------
  J1                   JUNCTION     0.162    0.162     0  13:46        3.19        3.19       0.238
  J3                   JUNCTION     0.000    0.149     0  23:49           0        4.27       0.782
  CSO7                 JUNCTION     0.039    0.039     0  18:01        1.13        1.13       0.082
  J5                   JUNCTION     0.050    0.086     0  18:11        1.07        2.19       0.325
  CSO9                 JUNCTION     0.055    0.055     0  13:51        1.13        1.13       0.123
  J8                   JUNCTION     0.198    0.241     0  14:21        5.25        6.37       0.379
  CSO8                 JUNCTION     0.244    0.244     0  15:01        3.17        3.17       0.119
  J10                  JUNCTION     0.202    0.386     0  15:01        2.58        5.71       0.728
  J13                  JUNCTION     0.200    0.200     0  18:01        3.73        3.73       0.278
  J15                  JUNCTION     0.000    0.561     0  17:57           0        12.5       1.025
  J16                  JUNCTION     0.328    0.328     0  13:46        5.53        5.53       0.207
  CSO10                JUNCTION     0.103    0.103     0  17:56        1.83        1.83       0.154
  J12                  JUNCTION     0.000    0.379     0  15:33           0        7.92       8.928
  J4                   JUNCTION     0.000    0.038     0  18:01           0        1.13       0.585
  J6                   JUNCTION     0.000    0.028     0  15:54           0       0.849       0.442
  J2                   JUNCTION     0.000    0.000     0  00:00           0           0       0.000 ltr
  J19                  JUNCTION     0.000    0.271     0  17:09           0        9.82       0.129
  J9                   JUNCTION     0.000    0.075     0  15:30           0        2.28       0.926
  J14                  JUNCTION     0.000    0.121     0  23:49           0        3.43       0.197
  J17                  JUNCTION     0.000    0.033     0  18:14           0       0.969       0.751
  J7                   JUNCTION     0.000    0.053     0  13:52           0        1.13       0.730
  J11                  JUNCTION     0.000    0.242     0  15:01           0        3.17       1.143
  J18                  JUNCTION     0.000    0.099     0  17:57           0        1.83       0.519
  Out_to_WWTP          OUTFALL      0.000    0.271     0  17:10           0         9.8       0.000
  T5                   STORAGE      0.000    0.152     0  13:47           0        3.18      18.512
  T4                   STORAGE      0.000    0.084     0  18:12           0        2.19      20.023
  T6                   STORAGE      0.000    0.234     0  14:22           0        6.34      15.380
  T3                   STORAGE      0.000    0.366     0  15:37           0        7.27      22.430
  T2                   STORAGE      0.000    0.186     0  18:02           0        3.72      33.955
  T1                   STORAGE      0.000    0.535     0  18:03           0        12.4       7.199
  
  
  **********************
  Node Surcharge Summary
  **********************
  
  No nodes were surcharged.
  
  
  *********************
  Node Flooding Summary
  *********************
  
  Flooding refers to all water that overflows a node, whether it ponds or not.
  --------------------------------------------------------------------------
                                                             Total   Maximum
                                 Maximum   Time of Max       Flood    Ponded
                        Hours       Rate    Occurrence      Volume     Depth
  Node                 Flooded       CMS   days hr:min    10^6 ltr    Meters
  --------------------------------------------------------------------------
  T5                      9.63     0.145      0  17:57       2.185     0.000
  T4                      6.56     0.056      0  18:12       0.474     0.000
  T6                      8.23     0.234      0  14:22       2.619     0.000
  T2                      5.21     0.135      0  18:17       0.812     0.000
  T1                      3.49     0.265      0  18:03       1.058     0.000
  
  
  **********************
  Storage Volume Summary
  **********************
  
  --------------------------------------------------------------------------------------------------
                         Average     Avg  Evap Exfil       Maximum     Max    Time of Max    Maximum
                          Volume    Pcnt  Pcnt  Pcnt        Volume    Pcnt     Occurrence    Outflow
  Storage Unit           1000 m3    Full  Loss  Loss       1000 m3    Full    days hr:min        CMS
  --------------------------------------------------------------------------------------------------
  T5                       0.273      55     0     0         0.500     100       0  14:12      0.000
  T4                       0.252      50     0     0         0.500     100       0  15:54      0.028
  T6                       0.358      60     0     0         0.600     100       0  13:43      0.075
  T3                       0.923      35     0     0         2.512      97       0  23:49      0.121
  T2                       0.417      42     0     0         1.000     100       0  18:14      0.033
  T1                       0.258      37     0     0         0.700     100       0  17:09      0.271
  
  
  ***********************
  Outfall Loading Summary
  ***********************
  
  -----------------------------------------------------------
                         Flow       Avg       Max       Total
                         Freq      Flow      Flow      Volume
  Outfall Node           Pcnt       CMS       CMS    10^6 ltr
  -----------------------------------------------------------
  Out_to_WWTP           99.43     0.115     0.271       9.803
  -----------------------------------------------------------
  System                99.43     0.115     0.271       9.803
  
  
  ********************
  Link Flow Summary
  ********************
  
  -----------------------------------------------------------------------------
                                 Maximum  Time of Max   Maximum    Max/    Max/
                                  |Flow|   Occurrence   |Veloc|    Full    Full
  Link                 Type          CMS  days hr:min     m/sec    Flow   Depth
  -----------------------------------------------------------------------------
  C1                   CONDUIT     0.000     0  00:00      0.00    0.00    0.06
  C6                   CONDUIT     0.037     0  18:13      1.16    0.59    0.46
  C2                   CONDUIT     0.028     0  16:39      1.18    0.03    0.16
  C9                   CONDUIT     0.049     0  13:58      0.99    0.17    0.30
  C16                  CONDUIT     0.217     0  15:03      1.38    0.02    0.10
  C3                   CONDUIT     0.121     0  23:49      1.89    0.05    0.14
  C19                  CONDUIT     0.033     0  19:08      0.63    0.01    0.16
  C11                  CONDUIT     0.149     0  23:49      1.47    0.01    0.09
  C20                  CONDUIT     0.307     0  13:47      2.63    0.01    0.09
  C22                  CONDUIT     0.093     0  17:58      1.30    0.04    0.22
  C12                  CONDUIT     0.075     0  16:55      0.91    0.01    0.23
  C17                  CONDUIT     0.369     0  15:03      2.40    0.02    0.25
  C10                  CONDUIT     0.234     0  14:22      0.93    0.02    0.55
  C13                  CONDUIT     0.366     0  15:37      0.66    0.02    0.71
  C18                  CONDUIT     0.186     0  18:02      1.01    0.01    0.53
  C23                  CONDUIT     0.535     0  18:03      0.85    0.06    0.58
  C4                   CONDUIT     0.152     0  13:47      1.12    0.04    0.57
  C7                   CONDUIT     0.084     0  18:12      0.80    0.02    0.55
  C14                  CONDUIT     0.271     0  17:10      2.08    0.02    0.09
  C5                   CONDUIT     0.038     0  18:01      1.12    0.66    0.64
  C8                   CONDUIT     0.053     0  13:52      1.28    0.66    0.52
  C15                  CONDUIT     0.242     0  15:01      2.61    0.77    0.56
  C21                  CONDUIT     0.099     0  17:57      1.63    0.57    0.42
  V4                   ORIFICE     0.028     0  15:54                      0.35
  V5                   ORIFICE     0.000     0  00:00                      0.00
  V1                   ORIFICE     0.271     0  17:09                      1.00
  V6                   ORIFICE     0.075     0  15:30                      0.43
  V3                   ORIFICE     0.121     0  23:49                      0.65
  V2                   ORIFICE     0.033     0  18:14                      0.24
  
  
  ***************************
  Flow Classification Summary
  ***************************
  
  -------------------------------------------------------------------------------------
                      Adjusted    ---------- Fraction of Time in Flow Class ---------- 
                       /Actual         Up    Down  Sub   Sup   Up    Down  Norm  Inlet 
  Conduit               Length    Dry  Dry   Dry   Crit  Crit  Crit  Crit  Ltd   Ctrl  
  -------------------------------------------------------------------------------------
  C1                      1.00   0.64  0.36  0.00  0.00  0.00  0.00  0.00  0.00  0.00
  C6                      1.00   0.00  0.00  0.00  0.01  0.99  0.00  0.00  0.00  0.00
  C2                      1.00   0.64  0.00  0.00  0.00  0.36  0.00  0.00  0.35  0.00
  C9                      1.00   0.00  0.00  0.00  1.00  0.00  0.00  0.00  1.00  0.00
  C16                     1.00   0.00  0.25  0.00  0.36  0.39  0.00  0.00  0.34  0.00
  C3                      1.00   0.64  0.00  0.00  0.00  0.36  0.00  0.00  0.00  0.00
  C19                     1.00   0.00  0.64  0.00  0.36  0.00  0.00  0.00  0.36  0.00
  C11                     1.00   0.00  0.64  0.00  0.05  0.31  0.00  0.00  0.36  0.00
  C20                     1.00   0.00  0.00  0.00  0.13  0.87  0.00  0.00  0.99  0.00
  C22                     1.00   0.00  0.00  0.00  0.87  0.13  0.00  0.00  1.00  0.00
  C12                     1.00   0.00  0.64  0.00  0.36  0.00  0.00  0.00  0.36  0.00
  C17                     1.00   0.00  0.00  0.00  0.24  0.76  0.00  0.00  0.94  0.00
  C10                     1.00   0.00  0.00  0.00  0.98  0.02  0.00  0.00  0.99  0.00
  C13                     1.00   0.00  0.00  0.00  0.93  0.07  0.00  0.00  0.69  0.00
  C18                     1.00   0.00  0.00  0.00  0.97  0.03  0.00  0.00  0.98  0.00
  C23                     1.00   0.00  0.00  0.00  0.51  0.49  0.00  0.00  0.92  0.00
  C4                      1.00   0.00  0.00  0.00  0.98  0.02  0.00  0.00  0.99  0.00
  C7                      1.00   0.00  0.00  0.00  0.97  0.03  0.00  0.00  0.98  0.00
  C14                     1.00   0.00  0.00  0.00  0.00  1.00  0.00  0.00  0.29  0.00
  C5                      1.00   0.00  0.00  0.00  0.89  0.11  0.00  0.00  0.99  0.00
  C8                      1.00   0.00  0.00  0.00  0.13  0.87  0.00  0.00  0.00  0.00
  C15                     1.00   0.25  0.00  0.00  0.00  0.75  0.00  0.00  0.00  0.00
  C21                     1.00   0.00  0.00  0.00  0.00  1.00  0.00  0.00  0.00  0.00
  
  
  *************************
  Conduit Surcharge Summary
  *************************
  
  ----------------------------------------------------------------------------
                                                           Hours        Hours 
                         --------- Hours Full --------   Above Full   Capacity
  Conduit                Both Ends  Upstream  Dnstream   Normal Flow   Limited
  ----------------------------------------------------------------------------
  C10                         0.01      0.01     15.76      0.01         0.01
  C13                         0.01      0.01      8.88      0.01         0.01
  C18                         0.01      0.01      9.46      0.01         0.01
  C23                         0.01      0.01      9.74      0.01         0.01
  C4                          0.01      0.01     15.93      0.01         0.01
  C7                          0.01      0.01     15.26      0.01         0.01
  

  Analysis begun on:  Mon Sep 20 12:02:45 2021
  Analysis ended on:  Mon Sep 20 12:02:45 2021
  Total elapsed time: < 1 sec