
  EPA STORM WATER MANAGEMENT MODEL - VERSION 5.1 (Build 5.3.0.dev0)
  --------------------------------------------------------------

  WARNING 04: minimum elevation drop used for Conduit WS02004404WS02004405
  WARNING 03: negative offset ignored for Link YS02001904YS02001907
  
  *********************************************************
  NOTE: The summary statistics displayed in this report are
  based on results found at every computational time step,  
  not just on results from each reporting time step.
  *********************************************************
  
  ****************
  Analysis Options
  ****************
  Flow Units ............... LPS
  Process Models:
    Rainfall/Runoff ........ YES
    RDII ................... NO
    Snowmelt ............... NO
    Groundwater ............ NO
    Flow Routing ........... YES
    Ponding Allowed ........ NO
    Water Quality .......... YES
  Infiltration Method ...... HORTON
  Flow Routing Method ...... DYNWAVE
  Surcharge Method ......... EXTRAN
  Starting Date ............ 08/28/2015 08:00:00
  Ending Date .............. 08/28/2015 15:50:00
  Antecedent Dry Days ...... 8.0
  Report Time Step ......... 00:01:00
  Wet Time Step ............ 00:01:00
  Dry Time Step ............ 00:01:00
  Routing Time Step ........ 5.00 sec
  Variable Time Step ....... YES
  Maximum Trials ........... 8
  Number of Threads ........ 4
  Head Tolerance ........... 0.001500 m
  
  
  **************************        Volume         Depth
  Runoff Quantity Continuity     hectare-m            mm
  **************************     ---------       -------
  Total Precipitation ......         5.556        12.164
  Evaporation Loss .........         0.000         0.000
  Infiltration Loss ........         1.002         2.194
  Surface Runoff ...........         3.688         8.075
  Final Storage ............         0.866         1.897
  Continuity Error (%) .....        -0.019
  
  
  **************************           COD            SS            TN            TP         NH4-N
  Runoff Quality Continuity             kg            kg            kg            kg            kg
  **************************    ----------    ----------    ----------    ----------    ----------
  Initial Buildup ..........     41378.656     70582.865      1804.177       168.684      1032.807
  Surface Buildup ..........        19.275        34.271         2.335         0.213         1.362
  Wet Deposition ...........         0.000         0.000         0.000         0.000         0.000
  Sweeping Removal .........         0.000         0.000         0.000         0.000         0.000
  Infiltration Loss ........        84.023       157.502         1.599         0.111         0.761
  BMP Removal ..............         0.000         0.000         0.000         0.000         0.000
  Surface Runoff ...........      3122.074      5752.154        60.620         4.098        28.771
  Remaining Buildup ........     38190.779     64705.500      1744.271       164.686      1004.628
  Continuity Error (%) .....         0.003         0.003         0.001         0.001         0.001
  
  
  **************************        Volume        Volume
  Flow Routing Continuity        hectare-m      10^6 ltr
  **************************     ---------     ---------
  Dry Weather Inflow .......         0.616         6.165
  Wet Weather Inflow .......         3.687        36.870
  Groundwater Inflow .......         0.000         0.000
  RDII Inflow ..............         0.000         0.000
  External Inflow ..........         0.102         1.024
  External Outflow .........         2.063        20.633
  Flooding Loss ............         1.936        19.359
  Evaporation Loss .........         0.000         0.000
  Exfiltration Loss ........         0.000         0.000
  Initial Stored Volume ....         0.076         0.761
  Final Stored Volume ......         0.624         6.237
  Continuity Error (%) .....        -3.145
  
  
  **************************           COD            SS            TN            TP         NH4-N
  Quality Routing Continuity            kg            kg            kg            kg            kg
  **************************    ----------    ----------    ----------    ----------    ----------
  Dry Weather Inflow .......      1541.201      2465.922       147.955        18.494        92.472
  Wet Weather Inflow .......      3121.290      5750.825        60.603         4.097        28.763
  Groundwater Inflow .......         0.000         0.000         0.000         0.000         0.000
  RDII Inflow ..............         0.000         0.000         0.000         0.000         0.000
  External Inflow ..........       183.418       293.469        17.608         2.201        11.005
  External Outflow .........      2375.830      4066.240       151.637        17.821        91.735
  Flooding Loss ............      1772.046      3251.773        47.336         4.209        25.101
  Exfiltration Loss ........         0.000         0.000         0.000         0.000         0.000
  Mass Reacted .............         0.000         0.000         0.000         0.000         0.000
  Initial Stored Mass ......         0.000         0.000         0.000         0.000         0.000
  Final Stored Mass ........       504.527       855.662        22.804         2.434        13.217
  Continuity Error (%) .....         3.993         3.955         1.941         1.328         1.654
  
  
  *************************
  Highest Continuity Errors
  *************************
  Node HS02004842 (14.53%)
  Node JK-storage (-14.12%)
  Node YS02001884 (11.08%)
  Node YSB1171 (2.74%)
  Node HS02004817 (2.73%)
  
  
  ***************************
  Time-Step Critical Elements
  ***************************
  Link WS02006252WS02006251 (65.86%)
  Link WS02006280WS02006229 (10.60%)
  Link YS02001793JiankangQianchi (5.31%)
  Link WS02006238WS02006235 (5.19%)
  Link YS02006556YS02006558 (1.99%)
  
  
  ********************************
  Highest Flow Instability Indexes
  ********************************
  Link WS02006113WS02006111 (40)
  Link WS02006238WS02006235 (38)
  Link YS02163601YS02164001 (37)
  Link YS02001619YS02001622 (36)
  Link YS02001629YS02163301 (35)
  
  
  *************************
  Routing Time Step Summary
  *************************
  Minimum Time Step           :     0.50 sec
  Average Time Step           :     1.11 sec
  Maximum Time Step           :     5.00 sec
  Percent in Steady State     :    -0.00
  Average Iterations per Step :     4.54
  Percent Not Converging      :    23.24
  
  
  ***************************
  Subcatchment Runoff Summary
  ***************************
  
  ------------------------------------------------------------------------------------------------------------------------------
                            Total      Total      Total      Total     Imperv       Perv      Total       Total     Peak  Runoff
                           Precip      Runon       Evap      Infil     Runoff     Runoff     Runoff      Runoff   Runoff   Coeff
  Subcatchment                 mm         mm         mm         mm         mm         mm         mm    10^6 ltr      LPS
  ------------------------------------------------------------------------------------------------------------------------------
  sub0                      12.16       0.00       0.00       0.65      11.27       0.20      11.47        0.01     1.99   0.943
  sub1                      12.16       0.00       0.00       1.12      10.73       0.22      10.95        0.07    14.96   0.900
  sub2                      12.16       0.00       0.00       4.23       7.58       0.27       7.85        0.07    15.08   0.646
  sub3                      12.16       0.00       0.00       4.29       7.54       0.21       7.75        0.17    34.61   0.637
  sub4                      12.16       0.00       0.00       1.19      10.57       0.14      10.71        0.22    42.34   0.881
  sub5                      12.16       0.00       0.00       0.69      11.21       0.16      11.38        0.13    26.18   0.935
  sub7                      12.16       0.00       0.00       0.88      11.01       0.22      11.22        0.04     7.95   0.923
  sub8                      12.16       0.00       0.00       0.89      11.00       0.21      11.20        0.07    14.89   0.921
  sub9                      12.16       0.00       0.00       0.89      10.99       0.21      11.20        0.05    11.18   0.921
  sub10                     12.16       0.00       0.00       0.79      11.10       0.18      11.28        0.12    25.49   0.928
  sub11                     12.16       0.00       0.00       0.78      11.12       0.19      11.31        0.13    27.35   0.930
  sub12                     12.16       0.00       0.00       1.27      10.53       0.31      10.85        0.09    20.52   0.892
  sub14                     12.16       0.00       0.00       0.89      10.99       0.20      11.20        0.11    22.08   0.920
  sub15                     12.16       0.00       0.00       3.28       8.45       0.37       8.82        0.15    32.49   0.725
  sub16                     12.16       0.00       0.00       3.51       8.11       0.50       8.61        0.09    20.36   0.708
  sub17                     12.16       0.00       0.00       3.41       8.23       0.48       8.71        0.07    16.72   0.716
  sub22                     12.16       0.00       0.00       4.80       6.89       0.43       7.32        0.46   102.62   0.602
  sub23                     12.16       0.00       0.00       4.05       7.62       0.45       8.07        0.38    85.35   0.663
  sub60                     12.16       0.00       0.00       1.42       8.82       0.04       8.86        2.69   336.84   0.729
  sub61                     12.16       0.00       0.00       2.01       8.94       0.06       9.00        2.78   399.45   0.740
  sub62                     12.16       0.00       0.00       0.92       9.73       0.05       9.78        3.01   415.79   0.804
  sub63                     12.16       0.00       0.00       3.46       7.82       0.06       7.88        2.39   361.21   0.648
  sub64                     12.16       0.00       0.00       1.78       8.47       0.04       8.51        2.59   320.97   0.699
  sub65                     12.16       0.00       0.00       1.54       8.61       0.04       8.65        2.66   326.54   0.711
  sub66                     12.16       0.00       0.00       3.49       7.26       0.04       7.30        2.24   290.53   0.600
  sub67                     12.16       0.00       0.00       0.91      10.24       0.07      10.31        3.18   494.23   0.848
  sub68                     12.16       0.00       0.00       1.64       9.40       0.06       9.46        2.91   432.52   0.778
  sub69                     12.16       0.00       0.00       1.73       9.72       0.09       9.82        2.29   383.95   0.807
  sub70                     12.16      10.02       0.00       6.98      13.09       0.56      13.65        3.12   394.93   0.615
  sub71                     12.16       0.00       0.00       0.93       9.48       0.05       9.53        2.25   296.34   0.783
  sub72                     12.16       0.00       0.00       0.83       7.62       0.02       7.64        1.56   151.13   0.628
  1                         12.16      13.29       0.00       1.37      14.64       3.94      18.57        4.36   399.24   0.730
  2                         12.16       0.00       0.00       3.02       2.89       1.65       4.55        1.82   245.52   0.374
  
  
  ****************************
  Subcatchment Washoff Summary
  ****************************
  
  ------------------------------------------------------------------------------------------
                                 COD            SS            TN            TP         NH4-N
  Subcatchment                    kg            kg            kg            kg            kg
  ------------------------------------------------------------------------------------------
  sub0                         2.176         4.147         0.037         0.003         0.018
  sub1                         9.268        18.138         0.173         0.012         0.083
  sub2                         5.563        10.570         0.119         0.008         0.054
  sub3                        13.747        25.918         0.288         0.019         0.132
  sub4                        21.530        42.606         0.429         0.026         0.205
  sub5                        21.300        41.103         0.378         0.029         0.183
  sub7                         4.748         9.424         0.090         0.006         0.043
  sub8                         7.142        14.500         0.143         0.008         0.069
  sub9                         6.100        12.212         0.118         0.007         0.057
  sub10                       17.532        34.266         0.321         0.023         0.155
  sub11                       17.086        33.770         0.320         0.022         0.154
  sub12                       14.392        27.890         0.260         0.019         0.125
  sub14                       13.021        25.823         0.247         0.016         0.119
  sub15                       16.182        30.744         0.313         0.023         0.146
  sub16                       10.318        19.555         0.197         0.015         0.092
  sub17                        9.471        17.789         0.175         0.014         0.082
  sub22                       48.821        90.813         0.932         0.070         0.434
  sub23                       29.138        56.181         0.627         0.041         0.287
  sub60                      203.703       376.194         4.083         0.248         1.956
  sub61                      251.300       461.579         4.699         0.320         2.261
  sub62                      262.762       491.326         5.157         0.324         2.474
  sub63                      185.047       334.594         3.739         0.261         1.731
  sub64                      253.867       452.095         4.687         0.339         2.235
  sub65                      260.106       465.192         4.834         0.344         2.309
  sub66                      146.558       263.078         3.037         0.197         1.417
  sub67                      388.205       718.566         6.963         0.510         3.363
  sub68                      276.714       513.393         5.318         0.356         2.539
  sub69                      247.676       464.012         4.658         0.325         2.225
  sub70                      413.256       778.342         8.287         0.572         3.877
  sub71                      173.740       327.842         3.597         0.206         1.720
  sub72                      136.329       239.316         2.558         0.174         1.230
  1                          280.724       531.718         5.751         0.398         2.660
  2                           35.485        61.812         1.030         0.062         0.437
  ------------------------------------------------------------------------------------------
  System                    3783.006      6994.507        73.566         4.996        34.873
  
  
  ******************
  Node Depth Summary
  ******************
  
  ---------------------------------------------------------------------------------
                                 Average  Maximum  Maximum  Time of Max    Reported
                                   Depth    Depth      HGL   Occurrence   Max Depth
  Node                 Type       Meters   Meters   Meters  days hr:min      Meters
  ---------------------------------------------------------------------------------
  WS02001211           JUNCTION     0.77     0.83     5.67     0  03:08        0.83
  WS02001212           JUNCTION     0.48     0.56     5.62     0  03:08        0.56
  WS02001213           JUNCTION     0.73     0.83     5.59     0  03:07        0.83
  WS02003069           JUNCTION     0.54     0.68     5.27     0  03:07        0.68
  WS02003072           JUNCTION     0.60     0.73     5.10     0  03:07        0.73
  WS02003073           JUNCTION     0.36     0.46     4.52     0  03:08        0.46
  WS02003060           JUNCTION     0.48     0.60     5.53     0  03:06        0.60
  WS02003066           JUNCTION     0.27     0.36     5.92     0  03:05        0.36
  WS02003059           JUNCTION     0.78     0.88     5.57     0  03:07        0.88
  WS02003067           JUNCTION     0.64     0.79     6.11     0  03:04        0.79
  WS02004401           JUNCTION     0.77     1.14     7.14     0  03:03        1.13
  WS02004402           JUNCTION     0.79     1.14     7.10     0  03:02        1.14
  WS02004403           JUNCTION     0.81     1.13     7.06     0  03:00        1.12
  WS02004404           JUNCTION     0.88     1.18     7.03     0  03:03        1.17
  WS02004406           JUNCTION     0.88     1.12     6.95     0  03:03        1.11
  WS02004409           JUNCTION     0.58     0.87     6.64     0  03:04        0.87
  WS02004410           JUNCTION     0.60     0.87     6.59     0  03:04        0.87
  WS02004411           JUNCTION     0.61     0.86     6.54     0  03:04        0.86
  WS02004412           JUNCTION     0.62     0.85     6.49     0  03:04        0.85
  WS02004413           JUNCTION     0.78     0.98     6.45     0  03:04        0.98
  WS02004405           JUNCTION     0.88     1.16     7.01     0  03:03        1.16
  WS02006109           JUNCTION     0.86     1.31     7.93     0  03:02        1.30
  WS02006110           JUNCTION     0.83     1.15     7.74     0  03:02        1.14
  WS02006111           JUNCTION     0.26     0.65     7.36     0  03:03        0.65
  WS02006112           JUNCTION     0.95     1.42     7.30     0  03:02        1.42
  WS02006113           JUNCTION     0.39     0.65     7.54     0  03:02        0.65
  WS02006115           JUNCTION     0.66     1.09     7.23     0  03:02        1.09
  WS02006116           JUNCTION     0.74     1.14     7.18     0  03:03        1.14
  WS02006230           JUNCTION     0.89     1.52     8.27     0  03:02        1.52
  WS02006231           JUNCTION     0.62     1.22     8.34     0  03:02        1.20
  WS02006232           JUNCTION     0.77     1.37     8.41     0  03:02        1.36
  WS02006234           JUNCTION     0.72     1.32     8.47     0  03:02        1.32
  WS02006235           JUNCTION     0.77     1.37     8.53     0  03:02        1.35
  WS02006238           JUNCTION     0.80     1.39     8.53     0  03:01        1.39
  WS02006240           JUNCTION     0.71     1.28     8.57     0  03:00        1.28
  WS02006242           JUNCTION     0.77     1.33     8.60     0  03:00        1.33
  WS02006243           JUNCTION     0.66     1.21     8.63     0  02:59        1.21
  WS02006245           JUNCTION     0.63     1.17     8.65     0  03:03        1.16
  WS02006247           JUNCTION     0.64     1.17     8.67     0  03:03        1.16
  WS02006248           JUNCTION     0.58     1.09     8.68     0  02:57        1.09
  WS02006249           JUNCTION     0.60     1.09     8.69     0  02:56        1.09
  WS02006239           JUNCTION     0.76     1.35     8.56     0  03:02        1.34
  WS02006251           JUNCTION     0.58     2.02     9.69     0  02:56        1.17
  WS02006252           JUNCTION     0.36     1.50     9.74     0  02:56        0.72
  WS02006253           JUNCTION     0.61     2.43    10.07     0  02:56        1.19
  WS02006256           JUNCTION     1.78     2.35     9.28     0  00:00        2.35
  WS02004138           JUNCTION     0.19     0.20     7.45     0  00:00        0.19
  WS02004139           JUNCTION     0.72     0.77     5.68     0  03:08        0.77
  WS02004407           JUNCTION     0.26     0.37     6.68     0  03:03        0.37
  WS02006228           JUNCTION     0.88     1.44     8.09     0  03:02        1.43
  WS02006229           JUNCTION     0.86     1.49     8.18     0  03:02        1.48
  WS02006280           JUNCTION     0.07     0.20     8.47     0  03:02        0.20
  WS02006284           JUNCTION     0.37     0.56     8.96     0  03:02        0.56
  WS02006287           JUNCTION     0.10     0.30     9.25     0  03:01        0.30
  WSF200               JUNCTION     0.26     0.40     5.64     0  03:04        0.40
  HS02004901           JUNCTION     0.12     0.29    10.12     0  03:01        0.29
  HS02004881           JUNCTION     0.01     0.05     9.08     0  02:56        0.04
  HS02004876           JUNCTION     0.04     0.12     9.15     0  02:57        0.12
  HS02004870           JUNCTION     0.01     0.07     9.35     0  03:01        0.07
  HS02004862           JUNCTION     0.02     0.08     9.46     0  03:01        0.08
  HS02004856           JUNCTION     0.08     0.13     9.55     0  03:01        0.13
  HS02004852           JUNCTION     0.01     0.05     9.56     0  03:01        0.05
  HS02004848           JUNCTION     0.01     0.05     9.65     0  03:01        0.05
  HS02004842           JUNCTION     0.33     0.38     9.65     0  03:01        0.38
  HS02004837           JUNCTION     0.03     0.07     9.65     0  03:01        0.07
  HS02004830           JUNCTION     0.04     0.08     9.55     0  03:01        0.08
  HS02004824           JUNCTION     0.02     0.06     9.47     0  03:01        0.06
  HS02004817           JUNCTION     0.44     0.61     9.45     0  03:01        0.61
  HS02004807           JUNCTION     0.13     0.28     9.45     0  03:01        0.28
  HS02004802           JUNCTION     0.16     0.31     9.44     0  03:01        0.31
  HS02004799           JUNCTION     0.12     0.35     9.56     0  03:01        0.35
  HS02004792           JUNCTION     0.03     0.15     9.67     0  03:01        0.15
  HS02004788           JUNCTION     0.03     0.11    10.01     0  03:01        0.11
  HS02004785           JUNCTION     0.05     0.18    10.09     0  03:01        0.18
  HS02004777           JUNCTION     0.15     0.31    10.11     0  03:01        0.31
  HS02004770           JUNCTION     0.12     0.29    10.12     0  03:01        0.29
  HS02004480           JUNCTION     0.08     0.28     9.52     0  03:01        0.28
  HS02004479           JUNCTION     0.12     0.32     9.52     0  03:01        0.32
  HS02004478           JUNCTION     0.06     0.20     9.42     0  03:01        0.20
  YS02001745           JUNCTION     0.73     0.91     8.43     0  03:00        0.91
  YS02001748           JUNCTION     1.14     1.59     8.67     0  02:27        1.34
  YS02001751           JUNCTION     1.32     1.71     8.59     0  02:27        1.54
  YS02001754           JUNCTION     1.58     1.84     8.45     0  02:27        1.80
  YS02001762           JUNCTION     1.78     2.04     8.44     0  02:50        2.01
  YS02001765           JUNCTION     1.73     1.98     8.43     0  02:54        1.96
  YS02001767           JUNCTION     1.69     1.94     8.43     0  02:54        1.92
  YS02001770           JUNCTION     1.69     1.92     8.41     0  02:54        1.91
  YS02001774           JUNCTION     1.76     1.98     8.40     0  02:56        1.97
  YS02001779           JUNCTION     1.50     1.68     8.37     0  02:27        1.68
  YS02001882           JUNCTION     0.53     1.62     8.33     0  03:00        1.61
  YS02001884           JUNCTION     0.62     1.72     8.34     0  02:58        1.71
  YS02001759           JUNCTION     1.81     2.08     8.44     0  02:50        2.05
  YS02001887           JUNCTION     0.70     1.80     8.33     0  02:59        1.79
  YS02001890           JUNCTION     0.73     1.81     8.32     0  02:54        1.81
  YS02001898           JUNCTION     0.50     1.56     8.29     0  03:01        1.55
  YS02001901           JUNCTION     0.62     1.67     8.28     0  03:00        1.67
  YS02001904           JUNCTION     0.59     1.64     8.27     0  02:54        1.63
  YS02001907           JUNCTION     0.93     1.96     8.25     0  02:44        1.96
  YS02001910           JUNCTION     0.71     1.78     8.29     0  02:46        1.76
  YS02001915           JUNCTION     0.51     1.58     8.30     0  02:46        1.57
  YS02001918           JUNCTION     0.26     1.26     8.33     0  02:45        1.23
  YS02001619           JUNCTION     1.28     1.61     8.54     0  02:27        1.50
  YS02001629           JUNCTION     1.64     1.85     8.40     0  02:27        1.84
  YS02001641           JUNCTION     1.74     1.94     8.37     0  06:21        1.93
  YS02001644           JUNCTION     1.74     1.92     8.35     0  02:35        1.92
  YS02001652           JUNCTION     1.59     2.11     8.70     0  03:45        1.92
  YS02001655           JUNCTION     1.35     2.11     8.96     0  03:45        1.75
  YS02001920           JUNCTION     0.37     1.34     8.35     0  02:45        1.30
  YS02001923           JUNCTION     0.20     1.10     8.36     0  02:45        1.06
  YS02001926           JUNCTION     0.27     0.92     8.36     0  02:45        0.91
  YS02001929           JUNCTION     0.15     0.68     8.38     0  02:46        0.66
  YS02001658           JUNCTION     1.08     2.09     9.24     0  03:45        1.55
  YS02001661           JUNCTION     0.84     2.01     9.41     0  03:58        1.42
  YS02001664           JUNCTION     0.37     0.57     8.50     0  02:45        0.56
  YS02001622           JUNCTION     1.31     1.62     8.52     0  02:27        1.51
  YS02001633           JUNCTION     1.73     1.95     8.40     0  02:35        1.94
  YS02001649           JUNCTION     1.78     2.05     8.44     0  02:37        2.04
  YS02001757           JUNCTION     1.91     2.17     8.44     0  02:50        2.15
  YS02001895           JUNCTION     0.49     1.56     8.31     0  03:00        1.56
  YS02001625           JUNCTION     1.59     1.78     8.38     0  02:27        1.78
  YS02163301           JUNCTION     1.67     1.90     8.42     0  02:27        1.88
  YS02163601           JUNCTION     1.78     1.99     8.39     0  02:35        1.98
  YS02164001           JUNCTION     1.72     1.93     8.38     0  06:21        1.91
  YS02001647           JUNCTION     1.57     1.80     8.41     0  02:41        1.79
  YSB1154              JUNCTION     0.26     0.47     9.52     0  03:01        0.47
  YSB6556              JUNCTION     0.15     0.35     9.52     0  03:01        0.35
  YSB1174              JUNCTION     0.21     0.41     9.52     0  03:01        0.41
  YSB1171              JUNCTION     0.41     0.62     9.52     0  03:01        0.62
  YS02006553           JUNCTION     0.93     1.96     8.25     0  02:55        1.96
  YS02006561           JUNCTION     0.29     1.08     7.74     0  02:49        1.07
  YS02006556           JUNCTION     0.89     1.92     8.23     0  02:55        1.91
  YS02006558           JUNCTION     0.94     1.96     8.23     0  02:59        1.95
  YS02001783           JUNCTION     0.50     1.47     7.61     0  02:44        1.47
  YS02001784           JUNCTION     0.52     1.48     7.55     0  02:34        1.40
  YS02001786           JUNCTION     0.45     1.57     7.60     0  02:34        1.25
  YS02001788           JUNCTION     0.38     1.59     7.57     0  02:34        1.12
  YS02001790           JUNCTION     0.48     1.96     7.60     0  04:43        1.29
  YS02001791           JUNCTION     0.42     2.72     8.19     0  04:42        1.27
  YS02001793           JUNCTION     0.55     2.25     7.08     0  04:42        1.82
  WSC                  OUTFALL      0.36     0.46     1.13     0  03:08        0.46
  JK-storage           STORAGE      2.34     5.80     6.60     0  02:34        5.80
  CC-storage           STORAGE      1.17     1.38     8.38     0  02:59        1.38
  XR-storage           STORAGE      6.65     7.72     5.72     0  02:50        7.72
  
  
  *******************
  Node Inflow Summary
  *******************
  
  -------------------------------------------------------------------------------------------------
                                  Maximum  Maximum                  Lateral       Total        Flow
                                  Lateral    Total  Time of Max      Inflow      Inflow     Balance
                                   Inflow   Inflow   Occurrence      Volume      Volume       Error
  Node                 Type           LPS      LPS  days hr:min    10^6 ltr    10^6 ltr     Percent
  -------------------------------------------------------------------------------------------------
  WS02001211           JUNCTION      7.35   389.56     0  05:48       0.207        9.97       0.404
  WS02001212           JUNCTION      0.00   391.68     0  05:48           0        9.93       0.233
  WS02001213           JUNCTION      0.00   393.66     0  05:47           0        9.91       0.293
  WS02003069           JUNCTION      0.32  1224.37     0  03:06     0.00902        20.7       0.161
  WS02003072           JUNCTION      0.00  1224.27     0  03:07           0        20.7       0.195
  WS02003073           JUNCTION      1.82  1226.21     0  03:07      0.0514        20.7       0.224
  WS02003060           JUNCTION     16.53  1223.92     0  03:06       0.466        20.7       0.151
  WS02003066           JUNCTION      0.00   829.86     0  03:05           0        10.4       0.040
  WS02003059           JUNCTION      0.00   396.69     0  05:47           0        9.88       0.400
  WS02003067           JUNCTION      0.00   829.74     0  03:04           0        10.4       0.084
  WS02004401           JUNCTION      0.00   831.46     0  03:02           0        10.7       0.183
  WS02004402           JUNCTION      0.00   831.82     0  03:03           0        10.6       0.174
  WS02004403           JUNCTION      0.00   833.01     0  03:02           0        10.6       0.160
  WS02004404           JUNCTION      0.16   832.31     0  03:02     0.00457        10.6       0.123
  WS02004406           JUNCTION      0.00   831.77     0  03:03           0        10.6       0.299
  WS02004409           JUNCTION      0.00   830.82     0  03:03           0        10.5       0.137
  WS02004410           JUNCTION      0.00   830.13     0  03:03           0        10.5       0.158
  WS02004411           JUNCTION      0.00   829.83     0  03:04           0        10.5       0.164
  WS02004412           JUNCTION      0.00   829.72     0  03:04           0        10.5       0.179
  WS02004413           JUNCTION      0.00   829.71     0  03:04           0        10.5       0.271
  WS02004405           JUNCTION      0.04   832.81     0  03:03     0.00107        10.6       0.182
  WS02006109           JUNCTION      1.23   818.28     0  03:02      0.0347        10.7       0.186
  WS02006110           JUNCTION      0.00   818.24     0  03:02           0        10.7       0.159
  WS02006111           JUNCTION      0.00   817.83     0  03:03           0        10.6       0.034
  WS02006112           JUNCTION     16.72   831.19     0  03:02      0.0747        10.7       0.267
  WS02006113           JUNCTION      0.00   818.29     0  03:02           0        10.7       0.077
  WS02006115           JUNCTION      0.00   831.33     0  03:02           0        10.7       0.170
  WS02006116           JUNCTION      0.00   831.72     0  03:02           0        10.7       0.144
  WS02006230           JUNCTION     10.28   533.09     0  06:51        0.29        8.52       0.158
  WS02006231           JUNCTION      0.00   522.86     0  06:51           0        8.24       0.083
  WS02006232           JUNCTION      0.00   522.70     0  06:50           0        8.25       0.182
  WS02006234           JUNCTION      0.00   523.00     0  06:53           0        8.26       0.076
  WS02006235           JUNCTION      0.00   523.82     0  06:52           0        8.33       0.110
  WS02006238           JUNCTION      0.00   417.38     0  04:30           0        5.05       0.147
  WS02006240           JUNCTION      0.00   416.65     0  04:30           0        5.01       0.204
  WS02006242           JUNCTION      0.00   416.84     0  04:30           0           5       0.250
  WS02006243           JUNCTION      0.00   416.84     0  04:30           0           5       0.159
  WS02006245           JUNCTION      0.00   416.61     0  04:30           0           5       0.180
  WS02006247           JUNCTION      0.00   416.72     0  04:30           0           5       0.129
  WS02006248           JUNCTION      0.00   416.52     0  04:30           0           5       0.087
  WS02006249           JUNCTION      0.00   487.54     0  03:00           0        5.39       0.166
  WS02006239           JUNCTION      0.00   417.13     0  04:30           0        5.03       0.181
  WS02006251           JUNCTION      0.08   487.37     0  03:01     0.00217        5.46       0.150
  WS02006252           JUNCTION      0.00   400.00     0  03:00           0        4.98       0.009
  WS02006253           JUNCTION      1.99   138.63     0  02:55     0.00928        0.48       0.683
  WS02006256           JUNCTION      0.00   983.00     0  02:10           0          10      -0.004
  WS02004138           JUNCTION      0.00   380.00     0  00:00           0         9.8       0.061
  WS02004139           JUNCTION      0.32   395.85     0  00:00     0.00905        9.81       0.465
  WS02004407           JUNCTION      0.00   831.48     0  03:03           0        10.5       0.061
  WS02006228           JUNCTION      0.00   817.26     0  03:02           0        10.7       0.133
  WS02006229           JUNCTION      0.00   817.41     0  03:02           0        10.7       0.120
  WS02006280           JUNCTION      0.00   413.63     0  03:02           0        2.17       0.007
  WS02006284           JUNCTION      0.10   413.58     0  03:02      0.0027        2.17       0.042
  WS02006287           JUNCTION      0.00   413.23     0  03:01           0        2.17       0.033
  WSF200               JUNCTION      0.00   829.91     0  03:05           0        10.4       0.036
  HS02004901           JUNCTION     20.36    20.36     0  03:01      0.0902      0.0904       1.990
  HS02004881           JUNCTION      7.95    90.29     0  02:56      0.0378        0.41       0.112
  HS02004876           JUNCTION     14.96    76.75     0  03:01      0.0728       0.373       0.148
  HS02004870           JUNCTION     14.89    62.15     0  03:01      0.0716         0.3       0.037
  HS02004862           JUNCTION     15.28    47.68     0  03:01      0.0788       0.229       0.076
  HS02004856           JUNCTION     11.18    32.72     0  03:01      0.0539       0.152       0.960
  HS02004852           JUNCTION      0.00    21.94     0  03:01           0      0.0979       0.059
  HS02004848           JUNCTION     34.61    34.61     0  03:01       0.174       0.174       0.028
  HS02004842           JUNCTION      0.00    12.41     0  03:01           0      0.0895      16.998
  HS02004837           JUNCTION     31.84    43.95     0  03:01       0.303        0.38       0.214
  HS02004830           JUNCTION      0.15    43.86     0  03:01     0.00423        0.37       0.335
  HS02004824           JUNCTION     42.39    85.89     0  03:01       0.225       0.594       0.091
  HS02004817           JUNCTION      0.60    86.28     0  03:01      0.0169        0.61       2.809
  HS02004807           JUNCTION     27.35   112.30     0  03:01       0.131       0.726       0.605
  HS02004802           JUNCTION      0.00   111.37     0  03:01           0       0.723       0.548
  HS02004799           JUNCTION     22.08   258.93     0  03:01       0.107        1.24       0.223
  HS02004792           JUNCTION    102.90   237.98     0  03:01        0.47        1.14       0.036
  HS02004788           JUNCTION     34.16   135.93     0  03:01       0.199       0.669       0.059
  HS02004785           JUNCTION      0.15   103.52     0  03:01     0.00423       0.471       0.106
  HS02004777           JUNCTION      0.03   104.16     0  03:01    0.000846       0.472       1.115
  HS02004770           JUNCTION     85.35   105.10     0  03:01       0.385       0.473       0.659
  HS02004480           JUNCTION      0.00   302.46     0  03:01           0        1.46       0.076
  HS02004479           JUNCTION      0.00    44.91     0  03:02           0       0.232       0.317
  HS02004478           JUNCTION      0.00   413.09     0  03:01           0        2.17       0.014
  YS02001745           JUNCTION    336.84   417.78     0  02:26        2.69         2.7       0.396
  YS02001748           JUNCTION      0.04   583.60     0  02:26     0.00127        2.69       0.812
  YS02001751           JUNCTION      0.01   343.35     0  03:01     0.00031        2.65       0.893
  YS02001754           JUNCTION      0.26   343.60     0  03:01     0.00733        2.64       0.948
  YS02001762           JUNCTION      0.00   291.17     0  02:38           0        1.85       1.165
  YS02001765           JUNCTION      0.00   292.45     0  02:38           0        1.85       1.333
  YS02001767           JUNCTION      0.54   292.73     0  02:38      0.0151        1.87       1.945
  YS02001770           JUNCTION    415.94   534.68     0  03:01        3.01        3.24       0.974
  YS02001774           JUNCTION      0.00   535.34     0  03:01           0        1.57       1.621
  YS02001779           JUNCTION      0.01   535.62     0  03:01    0.000141        1.54       1.011
  YS02001882           JUNCTION      0.00    43.16     0  02:36           0      0.0195      13.452
  YS02001884           JUNCTION      0.00    74.88     0  02:36           0      0.0565      12.465
  YS02001759           JUNCTION    399.49   572.87     0  02:38        2.78        4.37       0.523
  YS02001887           JUNCTION    494.68   495.63     0  03:01        3.19        3.22       0.270
  YS02001890           JUNCTION      0.00   495.20     0  03:01           0        3.18       0.293
  YS02001898           JUNCTION      0.00   495.77     0  03:01           0        3.16       0.106
  YS02001901           JUNCTION      0.00   496.18     0  03:01           0        3.16       0.219
  YS02001904           JUNCTION      0.00   496.01     0  03:01           0        3.16       0.207
  YS02001907           JUNCTION      0.00   942.94     0  03:01           0        7.02       0.355
  YS02001910           JUNCTION      0.00   451.20     0  03:00           0        3.87       0.314
  YS02001915           JUNCTION    296.36   451.64     0  03:00        2.25         3.9       0.155
  YS02001918           JUNCTION      0.00   210.63     0  02:46           0        1.66       0.122
  YS02001619           JUNCTION    290.53   290.53     0  03:01        2.24        2.24       0.550
  YS02001629           JUNCTION      0.00   198.97     0  02:17           0        1.69       1.746
  YS02001641           JUNCTION      0.00   398.98     0  02:34           0        4.25       0.500
  YS02001644           JUNCTION    321.01  1311.62     0  03:01        2.59        9.18       0.284
  YS02001652           JUNCTION      0.00   380.96     0  03:00           0        2.35       1.005
  YS02001655           JUNCTION      0.15   379.57     0  03:00     0.00434        2.37       1.058
  YS02001920           JUNCTION      2.87   210.87     0  02:46      0.0809        1.64       0.186
  YS02001923           JUNCTION      0.04   230.42     0  02:47     0.00106        1.56       0.050
  YS02001926           JUNCTION      0.05   184.57     0  02:46     0.00147        1.56       0.210
  YS02001929           JUNCTION    151.13   151.13     0  03:01        1.56        1.56       0.036
  YS02001658           JUNCTION      0.00   605.06     0  02:23           0        2.41       0.964
  YS02001661           JUNCTION      0.00   625.63     0  02:42           0        2.78      -0.438
  YS02001664           JUNCTION    361.21   361.21     0  03:01        2.38        2.77       0.234
  YS02001622           JUNCTION      0.00   291.17     0  03:01           0        2.22       1.453
  YS02001633           JUNCTION    326.74   396.80     0  02:35        2.66        4.31       0.751
  YS02001649           JUNCTION      0.00   826.64     0  02:35           0        5.48       0.680
  YS02001757           JUNCTION      0.00  1578.64     0  02:35           0        9.79       0.947
  YS02001895           JUNCTION      0.00   495.63     0  03:01           0        3.17       0.167
  YS02001625           JUNCTION      0.00   290.62     0  03:01           0        2.19       1.805
  YS02163301           JUNCTION      0.00   205.45     0  02:27           0        1.67       1.466
  YS02163601           JUNCTION      0.11   397.33     0  02:34      0.0031        4.27       0.712
  YS02164001           JUNCTION      0.00   397.69     0  02:35           0        4.25       0.478
  YS02001647           JUNCTION      0.00   607.71     0  03:01           0        4.48       0.631
  YSB1154              JUNCTION     26.18    26.18     0  03:01       0.129        0.13       1.130
  YSB6556              JUNCTION      0.00    25.82     0  03:01           0        0.13       0.969
  YSB1174              JUNCTION     20.52    20.52     0  03:01      0.0948      0.0953       1.368
  YSB1171              JUNCTION      0.00    45.30     0  03:01           0       0.231       2.820
  YS02006553           JUNCTION      0.00   704.56     0  03:31           0        6.56       0.241
  YS02006561           JUNCTION      0.00   982.40     0  03:00           0        9.44       0.009
  YS02006556           JUNCTION      0.00   704.46     0  03:31           0        6.57       0.179
  YS02006558           JUNCTION    433.40   983.48     0  02:59        2.93        9.47       0.054
  YS02001783           JUNCTION      0.00   982.54     0  03:00           0        9.44       0.026
  YS02001784           JUNCTION      1.06   984.28     0  03:01      0.0299        9.47       0.040
  YS02001786           JUNCTION      0.06   983.74     0  03:00     0.00159        9.47       0.038
  YS02001788           JUNCTION      0.07   983.46     0  03:00       0.002        9.46       0.025
  YS02001790           JUNCTION      0.15   983.98     0  03:00     0.00437        9.47       0.019
  YS02001791           JUNCTION      0.00   983.70     0  02:59           0        9.46       0.013
  YS02001793           JUNCTION      0.00   984.05     0  03:00           0        9.49      -0.026
  WSC                  OUTFALL       0.00  1226.37     0  03:08           0        20.6       0.000
  JK-storage           STORAGE       0.00  1135.08     0  02:04           0        9.64     -12.372
  CC-storage           STORAGE       0.00  1579.37     0  02:35           0        8.61       0.737
  XR-storage           STORAGE     844.76   844.76     0  03:01        11.8        12.4      -0.002
  
  
  **********************
  Node Surcharge Summary
  **********************
  
  Surcharging occurs when water rises above the top of the highest conduit.
  ---------------------------------------------------------------------
                                               Max. Height   Min. Depth
                                   Hours       Above Crown    Below Rim
  Node                 Type      Surcharged         Meters       Meters
  ---------------------------------------------------------------------
  WS02004401           JUNCTION        0.32          0.139        1.521
  WS02004402           JUNCTION        0.37          0.138        1.602
  WS02004403           JUNCTION        0.38          0.125        1.905
  WS02004404           JUNCTION        0.56          0.178        2.602
  WS02004406           JUNCTION        0.48          0.117        2.333
  WS02004405           JUNCTION        0.52          0.158        2.642
  WS02006109           JUNCTION        4.49          0.493        1.327
  WS02006110           JUNCTION        2.29          0.242        1.608
  WS02006112           JUNCTION        3.05          0.417        1.263
  WS02006115           JUNCTION        0.20          0.079        2.171
  WS02006116           JUNCTION        0.22          0.085        2.205
  WS02006230           JUNCTION        1.57          0.441        1.129
  WS02006231           JUNCTION        2.37          0.509        1.021
  WS02006232           JUNCTION        4.23          0.667        0.813
  WS02006234           JUNCTION        3.27          0.597        0.643
  WS02006235           JUNCTION        3.70          0.660        0.630
  WS02006238           JUNCTION        3.83          0.669        0.761
  WS02006240           JUNCTION        3.47          0.570        0.820
  WS02006242           JUNCTION        3.66          0.603        0.217
  WS02006243           JUNCTION        3.19          0.499        0.271
  WS02006245           JUNCTION        2.95          0.460        0.390
  WS02006247           JUNCTION        3.00          0.460        0.300
  WS02006248           JUNCTION        2.46          0.374        0.006
  WS02006249           JUNCTION        2.60          0.390        0.000
  WS02006239           JUNCTION        3.50          0.609        0.681
  WS02006251           JUNCTION        1.17          0.988        0.192
  WS02006252           JUNCTION        2.82          1.100        0.000
  WS02006253           JUNCTION        1.22          1.390        1.090
  WS02006256           JUNCTION        6.88          2.050        0.000
  WS02006228           JUNCTION        4.45          0.613        1.587
  YS02001748           JUNCTION        5.31          0.509        0.681
  YS02001751           JUNCTION        5.48          0.711        0.489
  YS02001754           JUNCTION        5.70          0.790        0.360
  YS02001762           JUNCTION        5.87          1.037        0.113
  YS02001765           JUNCTION        5.84          0.984        0.116
  YS02001767           JUNCTION        5.81          0.940        0.090
  YS02001770           JUNCTION        5.80          0.887        0.033
  YS02001774           JUNCTION        5.86          0.979        0.071
  YS02001779           JUNCTION        5.68          0.680        0.000
  YS02001882           JUNCTION        0.90          0.619        0.211
  YS02001884           JUNCTION        0.92          0.658        0.212
  YS02001759           JUNCTION        5.89          1.081        0.129
  YS02001887           JUNCTION        0.99          0.747        0.203
  YS02001890           JUNCTION        1.02          0.760        0.000
  YS02001898           JUNCTION        0.86          0.526        0.214
  YS02001901           JUNCTION        0.96          0.673        0.197
  YS02001904           JUNCTION        0.94          0.636        0.214
  YS02001907           JUNCTION        1.76          0.950        0.000
  YS02001910           JUNCTION        1.06          0.779        0.321
  YS02001915           JUNCTION        0.89          0.585        0.415
  YS02001918           JUNCTION        0.71          0.265        0.545
  YS02001619           JUNCTION        5.47          0.610        0.000
  YS02001629           JUNCTION        5.49          0.470        0.000
  YS02001641           JUNCTION        5.85          0.937        0.163
  YS02001644           JUNCTION        5.85          0.920        0.000
  YS02001652           JUNCTION        5.73          1.076        0.054
  YS02001655           JUNCTION        5.50          1.106        0.094
  YS02001920           JUNCTION        0.73          0.338        0.802
  YS02001658           JUNCTION        5.34          1.094        0.206
  YS02001661           JUNCTION        0.20          0.937        0.453
  YS02001622           JUNCTION        5.51          0.620        0.000
  YS02001633           JUNCTION        5.83          0.928        0.132
  YS02001649           JUNCTION        5.87          1.050        0.000
  YS02001757           JUNCTION        5.98          1.175        0.035
  YS02001895           JUNCTION        0.87          0.564        0.186
  YS02001625           JUNCTION        5.76          0.780        0.000
  YS02163301           JUNCTION        5.81          0.902        0.128
  YS02163601           JUNCTION        5.87          0.994        0.086
  YS02164001           JUNCTION        5.84          0.926        0.174
  YS02001647           JUNCTION        5.75          0.800        0.100
  YS02006553           JUNCTION        1.84          0.965        0.225
  YS02006561           JUNCTION        0.76          0.281        0.869
  YS02006556           JUNCTION        1.31          0.879        0.471
  YS02006558           JUNCTION        1.26          0.859        0.541
  YS02001783           JUNCTION        1.04          0.670        0.930
  YS02001784           JUNCTION        1.02          0.682        0.808
  YS02001786           JUNCTION        0.96          0.773        0.657
  YS02001788           JUNCTION        0.91          0.789        0.691
  YS02001790           JUNCTION        1.62          1.157        0.000
  YS02001791           JUNCTION        1.70          1.920        0.000
  YS02001793           JUNCTION        1.95          1.249        1.351
  
  
  *********************
  Node Flooding Summary
  *********************
  
  Flooding refers to all water that overflows a node, whether it ponds or not.
  --------------------------------------------------------------------------
                                                             Total   Maximum
                                 Maximum   Time of Max       Flood    Ponded
                        Hours       Rate    Occurrence      Volume     Depth
  Node                 Flooded       LPS   days hr:min    10^6 ltr    Meters
  --------------------------------------------------------------------------
  WS02006249              1.09    264.99      0  03:02       0.378     0.000
  WS02006252              0.01     30.78      0  02:56       0.000     0.000
  WS02006256              4.08    810.34      0  03:02       6.707     0.000
  YS02001779              2.42    535.61      0  03:01       1.520     0.000
  YS02001890              0.01      1.01      0  03:00       0.000     0.000
  YS02001907              0.58    394.16      0  03:01       0.442     0.000
  YS02001619              0.01     18.54      0  02:27       0.000     0.000
  YS02001629              0.01     29.97      0  02:27       0.000     0.000
  YS02001644              3.83   1310.91      0  03:01       7.027     0.000
  YS02001622              0.01     17.41      0  02:27       0.000     0.000
  YS02001649              0.06     33.40      0  03:24       0.002     0.000
  YS02001625              1.21    235.93      0  03:01       0.465     0.000
  YS02001790              0.01    250.68      0  04:43       0.000     0.000
  YS02001791              0.01    176.84      0  04:42       0.000     0.000
  JK-storage              0.72    815.44      0  02:40       0.828     0.000
  XR-storage              3.14    464.73      0  03:01       1.990     0.000
  
  
  **********************
  Storage Volume Summary
  **********************
  
  --------------------------------------------------------------------------------------------------
                         Average     Avg  Evap Exfil       Maximum     Max    Time of Max    Maximum
                          Volume    Pcnt  Pcnt  Pcnt        Volume    Pcnt     Occurrence    Outflow
  Storage Unit           1000 m3    Full  Loss  Loss       1000 m3    Full    days hr:min        LPS
  --------------------------------------------------------------------------------------------------
  JK-storage               0.118      40     0     0         0.291     100       0  02:34     983.00
  CC-storage               3.249      21     0     0         3.844      25       0  02:59     400.00
  XR-storage               0.798      86     0     0         0.926     100       0  02:50     380.00
  
  
  ***********************
  Outfall Loading Summary
  ***********************
  
  ---------------------------------------------------------------------------------------------------------------------------------
                         Flow       Avg       Max       Total         Total         Total         Total         Total         Total
                         Freq      Flow      Flow      Volume           COD            SS            TN            TP         NH4-N
  Outfall Node           Pcnt       LPS       LPS    10^6 ltr            kg            kg            kg            kg            kg
  ---------------------------------------------------------------------------------------------------------------------------------
  WSC                   99.98    831.12   1226.37      20.632      2375.963      4066.469       151.646        17.822        91.740
  ---------------------------------------------------------------------------------------------------------------------------------
  System                99.98    831.12   1226.37      20.632      2375.963      4066.469       151.646        17.822        91.740
  
  
  ********************
  Link Flow Summary
  ********************
  
  -----------------------------------------------------------------------------
                                 Maximum  Time of Max   Maximum    Max/    Max/
                                  |Flow|   Occurrence   |Veloc|    Full    Full
  Link                 Type          LPS  days hr:min     m/sec    Flow   Depth
  -----------------------------------------------------------------------------
  WS02003066WSF200     CONDUIT    829.91     0  03:05      2.94    0.14    0.30
  WS02006287WS02006284 CONDUIT    413.48     0  03:02      2.04    0.19    0.30
  WS02006284WS02006280 CONDUIT    413.63     0  03:02      2.28    0.17    0.28
  WS02006280WS02006229 CONDUIT    413.63     0  03:02      3.60    0.09    0.25
  WS02006229WS02006228 CONDUIT    817.26     0  03:02      1.63    2.71    1.00
  WS02006256WS02006235 CONDUIT    288.92     0  00:00      4.23    3.06    1.00
  WS02006253WS02006251 CONDUIT    125.43     0  02:56      0.60    0.38    1.00
  WS02006252WS02006251 CONDUIT    402.17     0  06:49      3.20    1.48    1.00
  WS02006251WS02006249 CONDUIT    487.54     0  03:00      1.27    1.41    1.00
  WS02006249WS02006248 CONDUIT    416.52     0  04:30      1.14    2.28    1.00
  WS02006248WS02006247 CONDUIT    416.72     0  04:30      1.10    0.91    1.00
  WS02006247WS02006245 CONDUIT    416.61     0  04:30      1.08    3.30    1.00
  WS02006245WS02006243 CONDUIT    416.84     0  04:30      1.09    1.23    1.00
  WS02006243WS02006242 CONDUIT    416.84     0  04:30      1.08    0.89    1.00
  WS02006242WS02006240 CONDUIT    416.65     0  04:30      1.08    1.65    1.00
  WS02006240WS02006239 CONDUIT    417.13     0  04:30      1.08    1.31    1.00
  WS02006239WS02006238 CONDUIT    417.38     0  04:30      1.08    1.34    1.00
  WS02006238WS02006235 CONDUIT    418.81     0  04:30      1.45    0.93    1.00
  WS02006235WS02006234 CONDUIT    523.00     0  06:53      1.36    5.52    1.00
  WS02006234WS02006232 CONDUIT    522.70     0  06:50      1.39    1.06    1.00
  WS02006232WS02006231 CONDUIT    522.86     0  06:51      1.36    1.10    1.00
  WS02006231WS02006230 CONDUIT    522.81     0  06:51      1.36    7.93    1.00
  WS02006230WS02006229 CONDUIT    533.89     0  06:50      1.39   11.88    1.00
  WS02006228WS02006109 CONDUIT    817.05     0  03:02      1.63    3.57    1.00
  WS02006116WS02004401 CONDUIT    831.46     0  03:02      1.06    1.15    1.00
  WS02006115WS02006116 CONDUIT    831.72     0  03:02      1.06    1.07    1.00
  WS02006113WS02006111 CONDUIT    817.83     0  03:03      2.59    0.98    0.81
  WS02006112WS02006115 CONDUIT    831.33     0  03:02      1.06    0.49    1.00
  WS02006111WS02006112 CONDUIT    818.24     0  03:03      1.74    0.39    0.90
  WS02006110WS02006113 CONDUIT    818.29     0  03:02      1.76    0.74    0.90
  WS02006109WS02006110 CONDUIT    818.24     0  03:02      1.63    1.57    1.00
  WS02004411WS02004412 CONDUIT    829.72     0  03:04      1.16    1.18    0.85
  WS02004401WS02004402 CONDUIT    831.82     0  03:03      1.06    1.00    1.00
  WS02004413WS02003067 CONDUIT    829.74     0  03:04      1.42    0.36    0.70
  WS02004412WS02004413 CONDUIT    829.71     0  03:04      1.10    0.56    0.91
  WS02004410WS02004411 CONDUIT    829.83     0  03:04      1.15    1.13    0.86
  WS02004409WS02004410 CONDUIT    830.13     0  03:03      1.15    1.07    0.87
  WS02004407WS02004409 CONDUIT    830.82     0  03:03      1.65    0.29    0.62
  WS02004406WS02004407 CONDUIT    831.48     0  03:03      1.45    0.37    0.69
  WS02004405WS02004406 CONDUIT    831.77     0  03:03      1.10    1.64    1.00
  WS02004404WS02004405 CONDUIT    832.77     0  03:03      1.15    8.16    1.00
  WS02004403WS02004404 CONDUIT    832.15     0  03:02      1.06    0.60    1.00
  WS02004402WS02004403 CONDUIT    833.01     0  03:02      1.06    1.20    1.00
  WS02004139WS02001211 CONDUIT    382.21     0  05:48      0.90    0.48    0.63
  WS02004138WS02004139 CONDUIT    395.52     0  00:00      3.64    0.08    0.46
  WS02003067WS02003066 CONDUIT    829.86     0  03:05      1.54    0.27    0.48
  WS02001213WS02003059 CONDUIT    396.69     0  05:47      0.89    0.65    0.84
  WS02001212WS02001213 CONDUIT    393.66     0  05:47      1.32    0.61    0.53
  WS02001211WS02001212 CONDUIT    391.68     0  05:48      0.78    0.30    0.69
  WS02003072WS02003073 CONDUIT   1224.39     0  03:07      1.90    2.64    0.55
  WS02003069WS02003072 CONDUIT   1224.27     0  03:07      1.77    0.59    0.59
  WS02003060WS02003069 CONDUIT   1224.05     0  03:06      1.99    0.48    0.54
  WS02003059WS02003060 CONDUIT    400.59     0  05:46      0.95    0.26    0.74
  HS02004901HS02004770 CONDUIT     20.53     0  03:01      0.07    0.08    0.42
  HS02004876HS02004881 CONDUIT     76.55     0  03:01      0.95    0.81    0.12
  HS02004870HS02004876 CONDUIT     61.90     0  03:01      0.65    0.04    0.14
  HS02004842HS02004848 CONDUIT     12.41     0  03:01      0.06    0.01    0.31
  HS02004837HS02004842 CONDUIT     12.98     0  03:02      0.42    0.01    0.32
  HS02004830HS02004837 CONDUIT     43.71     0  03:01      0.57    0.04    0.11
  HS02004824HS02004830 CONDUIT     43.67     0  03:01      0.59    0.06    0.11
  HS02004817HS02004824 CONDUIT     85.68     0  03:01      0.26    0.04    0.48
  HS02004770HS02004777 CONDUIT    104.13     0  03:01      0.35    0.19    0.43
  HS02004799HS02004480 CONDUIT    258.31     0  03:01      0.83    0.33    0.44
  HS02004792HS02004799 CONDUIT    237.05     0  03:01      0.95    0.15    0.36
  HS02004788HS02004792 CONDUIT    135.43     0  03:01      1.06    0.09    0.18
  HS02004785HS02004788 CONDUIT    103.22     0  03:02      0.71    0.78    0.21
  HS02004777HS02004785 CONDUIT    103.37     0  03:01      0.42    0.13    0.35
  HS02004480HS02004478 CONDUIT    302.30     0  03:01      1.26    1.27    0.34
  HS02004479HS02004480 CONDUIT     46.29     0  03:02      0.32    0.04    0.43
  HS02004862HS02004870 CONDUIT     47.43     0  03:01      0.66    0.05    0.10
  HS02004848HS02004852 CONDUIT     21.94     0  03:01      0.45    0.02    0.07
  HS02004856HS02004862 CONDUIT     32.47     0  03:01      0.48    0.03    0.10
  HS02004852HS02004856 CONDUIT     21.85     0  03:02      0.25    0.02    0.13
  HS02004802HS02004478 CONDUIT    111.52     0  03:02      0.45    0.10    0.36
  HS02004478WS02006287 CONDUIT    413.23     0  03:01      1.75    0.12    0.26
  HS02004817HS02004807 CONDUIT     86.14     0  03:01      0.19    0.05    0.63
  HS02004807HS02004802 CONDUIT    111.37     0  03:01      0.38    0.21    0.42
  YS02001759YS02001757 CONDUIT    573.79     0  02:38      0.73    0.41    1.00
  YS02001762YS02001759 CONDUIT    292.57     0  02:28      0.37    0.34    1.00
  YS02001765YS02001762 CONDUIT    291.17     0  02:38      0.37    0.27    1.00
  YS02001770YS02001767 CONDUIT    292.19     0  02:38      0.37    1.16    1.00
  YS02001774YS02001770 CONDUIT    535.34     0  03:01      0.68    0.34    1.00
  YS02001779YS02001774 CONDUIT    535.61     0  03:01      0.68    0.27    1.00
  YS02001649YS02001757 CONDUIT    828.25     0  02:35      1.05    0.50    1.00
  YS02001767YS02001765 CONDUIT    292.45     0  02:38      0.37    0.37    1.00
  YS02006561YS02001783 CONDUIT    982.54     0  03:00      2.15    0.51    1.00
  YS02001783YS02001784 CONDUIT    983.22     0  03:01      1.96    1.36    1.00
  YS02001784YS02001785 CONDUIT    983.69     0  03:00      1.96    2.29    1.00
  YS02001788YS02001790 CONDUIT    983.83     0  03:00      2.44    0.73    1.00
  YS02001790YS02001791 CONDUIT    983.70     0  02:59      2.91    1.07    1.00
  YS02001791YS02001793 CONDUIT    984.05     0  03:00      5.75    0.42    1.00
  YS02001910YS02001907 CONDUIT    451.74     0  03:00      0.58    0.25    1.00
  YS02001786YS02001788 CONDUIT    983.39     0  03:00      2.31    1.89    1.00
  YS02001915YS02001910 CONDUIT    451.20     0  03:00      0.59    0.22    1.00
  YS02001918YS02001915 CONDUIT    246.34     0  03:31      0.44    0.14    1.00
  YS02001923YS02001920 CONDUIT    208.00     0  02:46      0.72    0.09    1.00
  YS02001926YS02001923 CONDUIT    230.38     0  02:47      0.83    0.33    0.89
  YS02001929YS02001926 CONDUIT    184.51     0  02:46      0.89    0.09    0.79
  YS02001920YS02001918 CONDUIT    210.63     0  02:46      0.70    0.20    1.00
  YS02001629YS02163301 CONDUIT    205.45     0  02:27      0.26    0.25    1.00
  YS02001619YS02001622 CONDUIT    291.17     0  03:01      0.61    0.43    1.00
  YS02001622YS02001625 CONDUIT    290.62     0  03:01      0.37    0.16    1.00
  YS02001625YS02001629 CONDUIT    198.97     0  02:17      0.26    0.09    1.00
  YS02163301YS02001633 CONDUIT    207.10     0  02:27      0.26    0.19    1.00
  YS02163601YS02164001 CONDUIT    397.69     0  02:35      0.51    0.35    1.00
  YS02164001YS02001641 CONDUIT    398.98     0  02:34      0.51    0.54    1.00
  YS02001641YS02001644 CONDUIT    399.28     0  02:34      0.51    1.29    1.00
  YS02001647YS02001649 CONDUIT    607.71     0  03:01      0.77    0.32    1.00
  YS02006553YS02006556 CONDUIT    704.46     0  03:31      0.90    0.60    1.00
  YS02006556YS02006558 CONDUIT    704.50     0  03:31      0.90    0.56    1.00
  YSB6556YSB1171       CONDUIT     25.77     0  03:03      0.09    0.03    0.70
  YS02001907YS02006553 CONDUIT    704.56     0  03:31      0.78    0.83    1.00
  YS02006558YS02006561 CONDUIT    982.40     0  03:00      3.47    2.17    1.00
  YS02001633YS02163601 CONDUIT    397.22     0  02:34      0.51    0.42    1.00
  YS02001644YS02001647 CONDUIT    609.34     0  03:01      0.78    0.36    1.00
  YS02001745YS02001748 CONDUIT    583.56     0  02:26      1.47    0.22    0.96
  YS02001748YS02001751 CONDUIT    343.34     0  03:01      1.06    0.17    1.00
  YS02001751YS02001754 CONDUIT    343.34     0  03:01      0.92    0.17    1.00
  YS02001754YS02001757 CONDUIT    343.21     0  03:01      0.44    0.14    1.00
  YS02001882YS02001884 CONDUIT     43.16     0  02:36      0.13    0.05    1.00
  YS02001884YS02001887 CONDUIT     74.88     0  02:36      0.10    0.10    1.00
  YS02001890YS02001895 CONDUIT    495.63     0  03:01      0.63    0.23    1.00
  YS02001895YS02001898 CONDUIT    495.77     0  03:01      0.63    0.86    1.00
  YS02001898YS02001901 CONDUIT    496.18     0  03:01      0.63    0.32    1.00
  YS02001901YS02001904 CONDUIT    496.01     0  03:01      0.63    0.77    1.00
  YS02001904YS02001907 CONDUIT    496.27     0  03:01      0.63    0.17    1.00
  YS02001887YS02001890 CONDUIT    495.20     0  03:01      0.63    0.85    1.00
  YS02001652YS02001649 CONDUIT    382.34     0  03:00      0.63    0.19    1.00
  YS02001655YS02001652 CONDUIT    380.96     0  03:00      0.98    0.19    1.00
  YS02001658YS02001655 CONDUIT    379.42     0  03:00      1.22    0.16    1.00
  YS02001661YS02001658 CONDUIT    605.06     0  02:23      1.55    0.24    1.00
  YS02001664YS02001661 CONDUIT    625.63     0  02:42      1.43    0.20    0.76
  YSB1154YSB6556       CONDUIT     25.82     0  03:01      0.17    0.05    0.59
  YSB1174YSB1171       CONDUIT     20.15     0  03:01      0.07    0.03    0.70
  YSB1171HS02004479    CONDUIT     44.91     0  03:02      0.54    0.03    0.55
  HS02004881HS02006253 CONDUIT    126.27     0  02:56      2.14    0.02    0.54
  YS02001793JiankangQianchi CONDUIT   1135.08     0  02:04     17.50    0.09    1.00
  YS02001757CaochengTiaoxuchi CONDUIT   1579.37     0  02:35      2.02    0.69    1.00
  WSF200WS02003060     CONDUIT    830.10     0  03:05      1.85    0.18    0.42
  1                    CONDUIT   1226.37     0  03:08      3.51    0.43    0.46
  CC-Pump-1            PUMP       200.00     0  03:00              1.00
  CC-Pump-2            PUMP       200.00     0  03:00              1.00
  JK-Pump-1            PUMP       300.00     0  00:00              1.00
  JK-Pump-2            PUMP       683.00     0  02:10              1.00
  XR-Pump-1            PUMP        95.00     0  00:00              1.00
  XR-Pump-2            PUMP        95.00     0  00:00              1.00
  XR-Pump-3            PUMP        95.00     0  00:00              1.00
  XR-Pump-4            PUMP        95.00     0  00:00              1.00
  
  
  ***************************
  Flow Classification Summary
  ***************************
  
  -------------------------------------------------------------------------------------
                      Adjusted    ---------- Fraction of Time in Flow Class ---------- 
                       /Actual         Up    Down  Sub   Sup   Up    Down  Norm  Inlet 
  Conduit               Length    Dry  Dry   Dry   Crit  Crit  Crit  Crit  Ltd   Ctrl  
  -------------------------------------------------------------------------------------
  WS02003066WSF200        1.00   0.01  0.02  0.00  0.00  0.97  0.00  0.00  0.52  0.00
  WS02006287WS02006284    1.00   0.03  0.01  0.00  0.63  0.33  0.00  0.00  0.62  0.00
  WS02006284WS02006280    1.00   0.04  0.00  0.00  0.00  0.00  0.00  0.96  0.00  0.00
  WS02006280WS02006229    1.00   0.04  0.00  0.00  0.00  0.02  0.00  0.95  0.02  0.00
  WS02006229WS02006228    1.00   0.00  0.00  0.00  1.00  0.00  0.00  0.00  0.00  0.00
  WS02006256WS02006235    1.00   0.00  0.00  0.00  1.00  0.00  0.00  0.00  0.00  0.00
  WS02006253WS02006251    1.00   0.02  0.01  0.00  0.96  0.00  0.01  0.00  0.00  0.00
  WS02006252WS02006251    1.00   0.17  0.00  0.00  0.12  0.00  0.71  0.00  0.00  0.00
  WS02006251WS02006249    1.00   0.00  0.00  0.00  1.00  0.00  0.00  0.00  0.20  0.00
  WS02006249WS02006248    1.00   0.00  0.01  0.00  0.92  0.00  0.07  0.00  0.00  0.00
  WS02006248WS02006247    1.00   0.01  0.00  0.00  0.99  0.00  0.00  0.00  0.14  0.00
  WS02006247WS02006245    1.00   0.00  0.00  0.00  0.99  0.00  0.00  0.00  0.00  0.00
  WS02006245WS02006243    1.00   0.00  0.00  0.00  0.97  0.00  0.00  0.03  0.00  0.00
  WS02006243WS02006242    1.00   0.00  0.00  0.00  1.00  0.00  0.00  0.00  0.21  0.00
  WS02006242WS02006240    1.00   0.00  0.00  0.00  1.00  0.00  0.00  0.00  0.00  0.00
  WS02006240WS02006239    1.00   0.00  0.00  0.00  0.96  0.00  0.00  0.04  0.01  0.00
  WS02006239WS02006238    1.00   0.00  0.00  0.00  1.00  0.00  0.00  0.00  0.12  0.00
  WS02006238WS02006235    1.00   0.00  0.00  0.00  1.00  0.00  0.00  0.00  0.00  0.00
  WS02006235WS02006234    1.00   0.00  0.00  0.00  0.97  0.00  0.03  0.00  0.00  0.00
  WS02006234WS02006232    1.00   0.00  0.00  0.00  1.00  0.00  0.00  0.00  0.08  0.00
  WS02006232WS02006231    1.00   0.00  0.00  0.00  1.00  0.00  0.00  0.00  0.00  0.00
  WS02006231WS02006230    1.00   0.00  0.00  0.00  0.79  0.00  0.21  0.00  0.00  0.00
  WS02006230WS02006229    1.00   0.00  0.00  0.00  1.00  0.00  0.00  0.00  0.00  0.00
  WS02006228WS02006109    1.00   0.00  0.00  0.00  1.00  0.00  0.00  0.00  0.00  0.00
  WS02006116WS02004401    1.00   0.01  0.00  0.00  0.99  0.00  0.00  0.00  0.00  0.00
  WS02006115WS02006116    1.00   0.01  0.00  0.00  0.99  0.00  0.00  0.00  0.00  0.00
  WS02006113WS02006111    1.00   0.01  0.00  0.00  0.02  0.98  0.00  0.00  0.16  0.00
  WS02006112WS02006115    1.00   0.01  0.00  0.00  0.99  0.00  0.00  0.00  0.00  0.00
  WS02006111WS02006112    1.00   0.01  0.00  0.00  0.99  0.00  0.00  0.00  0.92  0.00
  WS02006110WS02006113    1.00   0.00  0.00  0.00  0.99  0.00  0.00  0.00  0.00  0.00
  WS02006109WS02006110    1.00   0.00  0.00  0.00  0.99  0.00  0.00  0.00  0.00  0.00
  WS02004411WS02004412    1.00   0.02  0.00  0.00  0.98  0.00  0.00  0.00  0.00  0.00
  WS02004401WS02004402    1.00   0.01  0.00  0.00  0.99  0.00  0.00  0.00  0.00  0.00
  WS02004413WS02003067    1.00   0.02  0.01  0.00  0.00  0.00  0.98  0.00  0.00  0.00
  WS02004412WS02004413    1.00   0.02  0.00  0.00  0.98  0.00  0.00  0.00  0.01  0.00
  WS02004410WS02004411    1.00   0.02  0.00  0.00  0.98  0.00  0.00  0.00  0.00  0.00
  WS02004409WS02004410    1.00   0.02  0.00  0.00  0.98  0.00  0.00  0.00  0.02  0.00
  WS02004407WS02004409    1.00   0.01  0.00  0.00  0.98  0.00  0.00  0.00  0.95  0.00
  WS02004406WS02004407    1.00   0.00  0.01  0.00  0.99  0.00  0.00  0.00  0.00  0.00
  WS02004405WS02004406    1.00   0.00  0.00  0.00  1.00  0.00  0.00  0.00  0.00  0.00
  WS02004404WS02004405    1.00   0.00  0.00  0.00  1.00  0.00  0.00  0.00  0.00  0.00
  WS02004403WS02004404    1.00   0.00  0.01  0.00  0.99  0.00  0.00  0.00  0.00  0.00
  WS02004402WS02004403    1.00   0.01  0.00  0.00  0.99  0.00  0.00  0.00  0.00  0.00
  WS02004139WS02001211    1.00   0.00  0.00  0.00  1.00  0.00  0.00  0.00  0.00  0.00
  WS02004138WS02004139    1.00   0.00  0.00  0.00  1.00  0.00  0.00  0.00  1.00  0.00
  WS02003067WS02003066    1.00   0.02  0.00  0.00  0.97  0.00  0.00  0.00  0.00  0.00
  WS02001213WS02003059    1.00   0.00  0.00  0.00  1.00  0.00  0.00  0.00  0.00  0.00
  WS02001212WS02001213    1.00   0.00  0.00  0.00  0.94  0.00  0.06  0.00  0.00  0.00
  WS02001211WS02001212    1.00   0.00  0.00  0.00  1.00  0.00  0.00  0.00  0.00  0.00
  WS02003072WS02003073    1.00   0.00  0.00  0.00  0.00  0.00  0.00  1.00  0.00  0.00
  WS02003069WS02003072    1.00   0.00  0.00  0.00  1.00  0.00  0.00  0.00  0.09  0.00
  WS02003060WS02003069    1.00   0.00  0.00  0.00  0.99  0.01  0.00  0.00  0.07  0.00
  WS02003059WS02003060    1.00   0.00  0.00  0.00  1.00  0.00  0.00  0.00  0.01  0.00
  HS02004901HS02004770    1.00   0.03  0.00  0.00  0.97  0.00  0.00  0.00  0.00  0.00
  HS02004876HS02004881    1.00   0.01  0.00  0.00  0.93  0.06  0.00  0.00  0.00  0.00
  HS02004870HS02004876    1.00   0.00  0.00  0.00  0.99  0.00  0.00  0.00  0.95  0.00
  HS02004842HS02004848    1.00   0.00  0.03  0.00  0.97  0.00  0.00  0.00  0.55  0.00
  HS02004837HS02004842    1.00   0.00  0.00  0.00  1.00  0.00  0.00  0.00  0.11  0.00
  HS02004830HS02004837    1.00   0.00  0.00  0.00  1.00  0.00  0.00  0.00  0.99  0.00
  HS02004824HS02004830    1.00   0.00  0.00  0.00  1.00  0.00  0.00  0.00  0.00  0.00
  HS02004817HS02004824    1.00   0.00  0.00  0.00  1.00  0.00  0.00  0.00  1.00  0.00
  HS02004770HS02004777    1.00   0.00  0.03  0.00  0.97  0.00  0.00  0.00  0.02  0.00
  HS02004799HS02004480    1.00   0.00  0.01  0.00  0.96  0.00  0.03  0.00  0.00  0.00
  HS02004792HS02004799    1.00   0.00  0.00  0.00  1.00  0.00  0.00  0.00  0.98  0.00
  HS02004788HS02004792    1.00   0.00  0.00  0.00  1.00  0.00  0.00  0.00  0.98  0.00
  HS02004785HS02004788    1.00   0.00  0.00  0.00  1.00  0.00  0.00  0.00  0.00  0.00
  HS02004777HS02004785    1.00   0.00  0.00  0.00  1.00  0.00  0.00  0.00  0.12  0.00
  HS02004480HS02004478    1.00   0.04  0.00  0.00  0.71  0.00  0.00  0.25  0.00  0.00
  HS02004479HS02004480    1.00   0.01  0.00  0.00  0.99  0.00  0.00  0.00  0.11  0.00
  HS02004862HS02004870    1.00   0.00  0.00  0.00  1.00  0.00  0.00  0.00  0.03  0.00
  HS02004848HS02004852    1.00   0.03  0.00  0.00  0.97  0.00  0.00  0.00  0.62  0.00
  HS02004856HS02004862    1.00   0.00  0.04  0.00  0.96  0.00  0.00  0.00  0.83  0.00
  HS02004852HS02004856    1.00   0.03  0.00  0.00  0.96  0.00  0.00  0.00  0.85  0.00
  HS02004802HS02004478    1.00   0.04  0.00  0.00  0.96  0.00  0.00  0.00  0.02  0.00
  HS02004478WS02006287    1.00   0.04  0.00  0.00  0.79  0.17  0.00  0.00  0.64  0.00
  HS02004817HS02004807    1.00   0.00  0.03  0.00  0.97  0.00  0.00  0.00  0.01  0.00
  HS02004807HS02004802    1.00   0.03  0.00  0.00  0.96  0.00  0.00  0.00  0.00  0.00
  YS02001759YS02001757    1.00   0.00  0.00  0.00  1.00  0.00  0.00  0.00  0.16  0.00
  YS02001762YS02001759    1.00   0.00  0.00  0.00  1.00  0.00  0.00  0.00  0.03  0.00
  YS02001765YS02001762    1.00   0.00  0.00  0.00  1.00  0.00  0.00  0.00  0.13  0.00
  YS02001770YS02001767    1.00   0.00  0.00  0.00  1.00  0.00  0.00  0.00  0.00  0.00
  YS02001774YS02001770    1.00   0.00  0.04  0.00  0.96  0.00  0.00  0.00  0.03  0.00
  YS02001779YS02001774    1.00   0.00  0.00  0.00  1.00  0.00  0.00  0.00  0.18  0.00
  YS02001649YS02001757    1.00   0.00  0.00  0.00  1.00  0.00  0.00  0.00  0.16  0.00
  YS02001767YS02001765    1.00   0.00  0.00  0.00  1.00  0.00  0.00  0.00  0.00  0.00
  YS02006561YS02001783    1.00   0.05  0.00  0.00  0.29  0.67  0.00  0.00  0.46  0.00
  YS02001783YS02001784    1.00   0.00  0.05  0.00  0.95  0.00  0.00  0.00  0.00  0.00
  YS02001784YS02001785    1.00   0.00  0.00  0.00  1.00  0.00  0.00  0.00  0.17  0.00
  YS02001788YS02001790    1.00   0.00  0.00  0.00  0.31  0.69  0.00  0.00  0.38  0.00
  YS02001790YS02001791    1.00   0.00  0.00  0.00  0.28  0.72  0.00  0.00  0.51  0.00
  YS02001791YS02001793    1.00   0.00  0.00  0.00  0.30  0.70  0.00  0.00  0.03  0.00
  YS02001910YS02001907    1.00   0.00  0.00  0.00  0.99  0.00  0.00  0.01  0.12  0.00
  YS02001786YS02001788    1.00   0.00  0.00  0.00  0.29  0.71  0.00  0.00  0.00  0.00
  YS02001915YS02001910    1.00   0.00  0.00  0.00  0.99  0.01  0.00  0.00  0.15  0.00
  YS02001918YS02001915    1.00   0.00  0.00  0.00  0.99  0.01  0.00  0.00  0.55  0.00
  YS02001923YS02001920    1.00   0.00  0.00  0.00  1.00  0.00  0.00  0.00  0.84  0.00
  YS02001926YS02001923    1.00   0.00  0.02  0.00  0.12  0.00  0.85  0.00  0.00  0.00
  YS02001929YS02001926    1.00   0.00  0.03  0.00  0.97  0.00  0.00  0.00  0.77  0.00
  YS02001920YS02001918    1.00   0.00  0.00  0.00  1.00  0.00  0.00  0.00  0.00  0.00
  YS02001629YS02163301    1.00   0.04  0.00  0.00  0.96  0.00  0.00  0.00  0.00  0.00
  YS02001619YS02001622    1.00   0.03  0.00  0.00  0.97  0.00  0.00  0.00  0.00  0.00
  YS02001622YS02001625    1.00   0.03  0.00  0.00  0.97  0.00  0.00  0.00  0.04  0.00
  YS02001625YS02001629    1.00   0.04  0.01  0.00  0.94  0.00  0.02  0.00  0.00  0.00
  YS02163301YS02001633    1.00   0.00  0.04  0.00  0.96  0.00  0.00  0.00  0.00  0.00
  YS02163601YS02164001    1.00   0.00  0.02  0.00  0.98  0.00  0.00  0.00  0.00  0.00
  YS02164001YS02001641    1.00   0.00  0.02  0.00  0.98  0.00  0.00  0.00  0.06  0.00
  YS02001641YS02001644    1.00   0.00  0.00  0.00  1.00  0.00  0.00  0.00  0.00  0.00
  YS02001647YS02001649    1.00   0.00  0.04  0.00  0.96  0.00  0.00  0.00  0.01  0.00
  YS02006553YS02006556    1.00   0.01  0.00  0.00  0.99  0.00  0.00  0.00  0.03  0.00
  YS02006556YS02006558    1.00   0.00  0.00  0.00  1.00  0.00  0.00  0.00  0.00  0.00
  YSB6556YSB1171          1.00   0.01  0.02  0.00  0.97  0.00  0.00  0.00  0.00  0.00
  YS02001907YS02006553    1.00   0.00  0.01  0.00  0.99  0.00  0.00  0.00  0.00  0.00
  YS02006558YS02006561    1.00   0.05  0.00  0.00  0.12  0.83  0.00  0.00  0.50  0.00
  YS02001633YS02163601    1.00   0.00  0.00  0.00  1.00  0.00  0.00  0.00  0.15  0.00
  YS02001644YS02001647    1.00   0.00  0.04  0.00  0.96  0.00  0.00  0.00  0.00  0.00
  YS02001745YS02001748    1.00   0.00  0.00  0.00  0.92  0.01  0.00  0.08  0.04  0.00
  YS02001748YS02001751    1.00   0.00  0.00  0.00  0.97  0.03  0.00  0.00  0.15  0.00
  YS02001751YS02001754    1.00   0.00  0.00  0.00  0.95  0.00  0.00  0.05  0.02  0.00
  YS02001754YS02001757    1.00   0.00  0.00  0.00  1.00  0.00  0.00  0.00  0.18  0.00
  YS02001882YS02001884    1.00   0.04  0.00  0.00  0.96  0.00  0.00  0.00  0.00  0.00
  YS02001884YS02001887    1.00   0.02  0.01  0.00  0.97  0.00  0.00  0.00  0.00  0.00
  YS02001890YS02001895    1.00   0.00  0.04  0.00  0.96  0.00  0.00  0.00  0.00  0.00
  YS02001895YS02001898    1.00   0.04  0.00  0.00  0.95  0.00  0.01  0.00  0.00  0.00
  YS02001898YS02001901    1.00   0.04  0.00  0.00  0.96  0.00  0.00  0.00  0.01  0.00
  YS02001901YS02001904    1.00   0.04  0.00  0.00  0.96  0.00  0.00  0.00  0.00  0.00
  YS02001904YS02001907    1.00   0.00  0.04  0.00  0.96  0.00  0.00  0.00  0.00  0.00
  YS02001887YS02001890    1.00   0.00  0.00  0.00  0.99  0.00  0.01  0.00  0.00  0.00
  YS02001652YS02001649    1.00   0.00  0.00  0.00  1.00  0.00  0.00  0.00  0.16  0.00
  YS02001655YS02001652    1.00   0.00  0.00  0.00  0.95  0.00  0.00  0.05  0.02  0.00
  YS02001658YS02001655    1.00   0.00  0.04  0.00  0.94  0.03  0.00  0.00  0.08  0.00
  YS02001661YS02001658    1.00   0.04  0.00  0.00  0.92  0.05  0.00  0.00  0.08  0.00
  YS02001664YS02001661    1.00   0.03  0.00  0.00  0.92  0.04  0.00  0.00  0.19  0.00
  YSB1154YSB6556          1.00   0.03  0.00  0.00  0.97  0.00  0.00  0.00  0.01  0.00
  YSB1174YSB1171          1.00   0.02  0.01  0.00  0.97  0.00  0.00  0.00  0.00  0.00
  YSB1171HS02004479       1.00   0.01  0.00  0.00  0.98  0.00  0.00  0.00  0.10  0.00
  HS02004881HS02006253    1.00   0.02  0.00  0.00  0.79  0.01  0.00  0.19  0.60  0.00
  YS02001793JiankangQianchi    1.00   0.00  0.00  0.00  0.61  0.39  0.00  0.00  0.41  0.00
  YS02001757CaochengTiaoxuchi    1.00   0.00  0.06  0.00  0.94  0.00  0.00  0.00  0.00  0.00
  WSF200WS02003060        1.00   0.00  0.01  0.00  0.97  0.02  0.00  0.00  0.28  0.00
  1                       1.00   0.00  0.00  0.00  0.00  1.00  0.00  0.00  0.50  0.00
  
  
  *************************
  Conduit Surcharge Summary
  *************************
  
  ----------------------------------------------------------------------------
                                                           Hours        Hours 
                         --------- Hours Full --------   Above Full   Capacity
  Conduit                Both Ends  Upstream  Dnstream   Normal Flow   Limited
  ----------------------------------------------------------------------------
  WS02006229WS02006228        4.45      4.53      4.45      5.27         4.45
  WS02006256WS02006235        6.15      6.16      6.88      4.33         0.01
  WS02006253WS02006251        2.41      2.41      2.55      0.01         0.01
  WS02006252WS02006251        1.90      1.90      2.82      2.49         0.01
  WS02006251WS02006249        2.44      2.45      2.60      1.61         1.38
  WS02006249WS02006248        2.46      2.46      2.60      4.53         0.01
  WS02006248WS02006247        2.57      2.57      3.00      0.01         0.01
  WS02006247WS02006245        2.95      3.09      2.95      4.66         2.91
  WS02006245WS02006243        3.04      3.05      3.19      0.68         0.71
  WS02006243WS02006242        3.29      3.29      3.66      0.01         0.01
  WS02006242WS02006240        3.47      3.47      3.75      2.71         0.01
  WS02006240WS02006239        3.47      3.51      3.50      1.59         1.08
  WS02006239WS02006238        3.63      3.69      3.83      1.72         1.29
  WS02006238WS02006235        3.78      3.78      4.04      0.01         0.02
  WS02006235WS02006234        3.27      3.27      3.70      6.10         0.01
  WS02006234WS02006232        3.59      3.59      4.23      1.09         1.08
  WS02006232WS02006231        2.37      2.37      4.23      1.29         0.01
  WS02006231WS02006230        1.57      1.57      2.47      6.17         0.01
  WS02006230WS02006229        4.90      5.12      4.90      6.26         4.90
  WS02006228WS02006109        4.49      4.73      4.49      5.98         4.49
[...]
  YS02001765YS02001762        5.84      5.84      5.87      0.01         0.01
  YS02001770YS02001767        5.81      5.81      5.81      0.19         0.82
  YS02001774YS02001770        5.80      5.80      5.86      0.01         0.01
  YS02001779YS02001774        5.68      5.68      5.86      0.01         0.01
  YS02001649YS02001757        5.87      5.87      5.98      0.01         0.01
  YS02001767YS02001765        5.81      5.81      5.84      0.01         0.01
  YS02006561YS02001783        0.76      0.76      1.04      0.01         0.01
  YS02001783YS02001784        1.02      1.04      1.02      1.40         1.00
  YS02001784YS02001785        0.96      1.02      0.96      2.39         0.96
  YS02001788YS02001790        0.91      0.91      1.62      0.01         0.01
  YS02001790YS02001791        1.61      1.62      1.70      0.87         0.84
  YS02001791YS02001793        1.70      1.70      2.03      0.01         0.01
  YS02001910YS02001907        1.06      1.06      1.76      0.01         0.01
  YS02001786YS02001788        0.91      0.96      0.91      1.95         0.91
  YS02001915YS02001910        0.89      0.89      1.06      0.01         0.01
  YS02001918YS02001915        0.71      0.71      0.89      0.01         0.01
  YS02001923YS02001920        0.53      0.53      0.73      0.01         0.01
  YS02001920YS02001918        0.71      0.71      0.73      0.01         0.01
  YS02001629YS02163301        5.80      5.80      5.81      0.01         0.01
  YS02001619YS02001622        5.47      5.47      5.51      0.01         0.01
  YS02001622YS02001625        5.51      5.51      5.76      0.01         0.01
  YS02001625YS02001629        5.49      5.49      5.76      0.01         0.01
  YS02163301YS02001633        5.81      5.81      5.84      0.01         0.01
  YS02163601YS02164001        5.84      5.84      5.87      0.01         0.01
  YS02164001YS02001641        5.84      5.84      5.85      0.01         0.03
  YS02001641YS02001644        5.85      5.85      5.85      1.52         1.66
  YS02001647YS02001649        5.75      5.75      5.87      0.01         0.01
  YS02006553YS02006556        1.31      1.31      1.84      0.01         0.01
  YS02006556YS02006558        1.51      1.51      1.92      0.01         0.01
  YS02001907YS02006553        2.42      2.42      2.67      0.01         0.01
  YS02006558YS02006561        0.90      1.26      0.90      2.24         0.90
  YS02001633YS02163601        5.83      5.83      5.87      0.01         0.01
  YS02001644YS02001647        5.75      5.75      5.85      0.01         0.01
  YS02001745YS02001748        0.01      0.01      5.31      0.01         0.01
  YS02001748YS02001751        5.36      5.36      5.48      0.01         0.01
  YS02001751YS02001754        5.47      5.47      5.70      0.01         0.01
  YS02001754YS02001757        5.74      5.74      5.98      0.01         0.01
  YS02001882YS02001884        0.90      0.90      0.92      0.01         0.01
  YS02001884YS02001887        0.97      0.97      0.99      0.01         0.01
  YS02001890YS02001895        0.87      0.87      1.07      0.01         0.01
  YS02001895YS02001898        0.86      0.86      0.87      0.01         0.01
  YS02001898YS02001901        0.88      0.88      0.96      0.01         0.01
  YS02001901YS02001904        0.94      0.94      0.96      0.01         0.01
  YS02001904YS02001907        0.94      0.94      1.86      0.01         0.01
  YS02001887YS02001890        1.02      1.02      1.03      0.01         0.01
  YS02001652YS02001649        5.76      5.76      5.87      0.01         0.01
  YS02001655YS02001652        5.50      5.50      5.73      0.01         0.01
  YS02001658YS02001655        5.33      5.33      5.50      0.01         0.01
  YS02001661YS02001658        0.18      0.18      5.33      0.01         0.01
  YS02001664YS02001661        0.01      0.01      0.99      0.01         0.01
  HS02004881HS02006253        0.01      0.01      1.22      0.01         0.01
  YS02001793JiankangQianchi        1.95      1.95      3.87      0.01         0.01
  YS02001757CaochengTiaoxuchi        5.21      5.21      5.98      0.01         0.01
  
  
  ***************
  Pumping Summary
  ***************
  
  ---------------------------------------------------------------------------------------------------------
                                                  Min       Avg       Max     Total     Power    % Time Off
                        Percent   Number of      Flow      Flow      Flow    Volume     Usage    Pump Curve
  Pump                 Utilized   Start-Ups       LPS       LPS       LPS  10^6 ltr     Kw-hr    Low   High
  ---------------------------------------------------------------------------------------------------------
  CC-Pump-1               63.82           2      0.00    184.38    200.00     3.300      3.53    0.0    0.0
  CC-Pump-2               46.80           6      0.00    103.06    200.00     1.680      2.21    0.0    0.0
  JK-Pump-1               59.56           5      0.00    227.50    300.00     3.689     59.43    0.0    0.0
  JK-Pump-2               53.17           4      0.00    430.40    683.00     6.351     94.80    0.0   96.3
  XR-Pump-1               95.74           3      0.00     93.37     95.00     2.451     22.34    0.0    0.0
  XR-Pump-2               95.74           3      0.00     93.37     95.00     2.451     22.34    0.0    0.0
  XR-Pump-3               95.74           3      0.00     93.37     95.00     2.451     22.34    0.0    0.0
  XR-Pump-4               95.74           3      0.00     93.37     95.00     2.451     22.34    0.0    0.0
  
  
  ***************************
  Link Pollutant Load Summary
  ***************************
  
  ------------------------------------------------------------------------------------------
                                 COD            SS            TN            TP         NH4-N
  Link                            kg            kg            kg            kg            kg
  ------------------------------------------------------------------------------------------
  WS02003066WSF200           850.723      1561.874        22.424         1.952        11.807
  WS02006287WS02006284       268.071       498.237         9.347         0.943         5.214
  WS02006284WS02006280       268.557       499.019         9.394         0.949         5.244
  WS02006280WS02006229       268.521       498.951         9.392         0.949         5.243
  WS02006229WS02006228       855.838      1570.964        22.078         1.892        11.557
  WS02006256WS02006235       180.458       330.492         4.044         0.318         2.054
  WS02006253WS02006251        53.632       102.848         1.256         0.097         0.632
  WS02006252WS02006251       406.146       734.900         8.511         0.609         4.181
  WS02006251WS02006249       450.381       820.875         9.581         0.694         4.725
  WS02006249WS02006248       416.041       757.705         8.861         0.642         4.371
  WS02006248WS02006247       415.829       757.371         8.856         0.642         4.369
  WS02006247WS02006245       415.371       756.559         8.846         0.641         4.364
  WS02006245WS02006243       414.906       755.822         8.832         0.640         4.356
  WS02006243WS02006242       414.466       755.055         8.824         0.639         4.353
  WS02006242WS02006240       413.768       753.860         8.807         0.638         4.344
  WS02006240WS02006239       413.960       754.324         8.809         0.638         4.345
  WS02006239WS02006238       414.950       756.109         8.841         0.641         4.363
  WS02006238WS02006235       415.320       756.646         8.855         0.643         4.371
  WS02006235WS02006234       591.471      1079.282        12.792         0.952         6.370
  WS02006234WS02006232       590.861      1078.207        12.783         0.952         6.366
  WS02006232WS02006231       590.036      1076.751        12.764         0.950         6.356
  WS02006231WS02006230       589.364      1075.547        12.750         0.949         6.350
  WS02006230WS02006229       588.317      1073.771        12.719         0.947         6.333
  WS02006228WS02006109       854.666      1568.925        22.043         1.889        11.539
  WS02006116WS02004401       864.239      1585.726        22.760         1.979        11.980
  WS02006115WS02006116       865.779      1588.414        22.809         1.983        12.007
  WS02006113WS02006111       859.988      1577.015        22.754         1.981        11.991
  WS02006112WS02006115       867.138      1590.783        22.857         1.988        12.034
  WS02006111WS02006112       859.305      1575.805        22.734         1.979        11.980
  WS02006110WS02006113       860.570      1578.017        22.775         1.983        12.003
  WS02006109WS02006110       861.819      1580.169        22.822         1.988        12.029
  WS02004411WS02004412       854.005      1567.638        22.532         1.962        11.867
  WS02004401WS02004402       862.788      1583.193        22.711         1.974        11.953
  WS02004413WS02003067       851.384      1563.049        22.440         1.953        11.816
  WS02004412WS02004413       852.740      1565.421        22.493         1.958        11.846
  WS02004410WS02004411       855.054      1569.476        22.563         1.965        11.883
  WS02004409WS02004410       856.108      1571.321        22.596         1.968        11.901
  WS02004407WS02004409       857.044      1572.960        22.622         1.970        11.915
  WS02004406WS02004407       857.387      1573.562        22.628         1.970        11.918
  WS02004405WS02004406       859.024      1576.408        22.687         1.976        11.951
  WS02004404WS02004405       860.444      1578.931        22.708         1.977        11.960
  WS02004403WS02004404       860.158      1578.602        22.626         1.966        11.906
  WS02004402WS02004403       861.367      1580.715        22.666         1.970        11.929
  WS02004139WS02001211      1386.334      2284.350       115.215        14.108        71.149
  WS02004138WS02004139      1392.905      2295.197       115.746        14.173        71.476
  WS02003067WS02003066       850.901      1562.196        22.430         1.952        11.810
  WS02001213WS02003059      1419.356      2336.463       118.599        14.535        73.274
  WS02001212WS02001213      1428.713      2351.823       119.383        14.631        73.759
  WS02001211WS02001212      1430.596      2354.889       119.547        14.651        73.860
  WS02003072WS02003073      2370.036      4057.272       150.959        17.734        91.306
  WS02003069WS02003072      2375.153      4065.752       151.354        17.782        91.549
  WS02003060WS02003069      2377.830      4070.310       151.515        17.801        91.645
  WS02003059WS02003060      1416.419      2331.582       118.370        14.507        73.133
  HS02004901HS02004770        10.270        19.477         0.195         0.015         0.091
  HS02004876HS02004881        37.320        72.584         0.843         0.062         0.416
  HS02004870HS02004876        28.162        54.631         0.678         0.051         0.338
  HS02004842HS02004848         5.467        10.276         0.115         0.008         0.053
  HS02004837HS02004842        10.072        17.582         0.584         0.067         0.347
  HS02004830HS02004837        65.640       112.706         4.557         0.546         2.785
  HS02004824HS02004830        66.391       113.909         4.628         0.555         2.830
  HS02004817HS02004824        88.208       156.980         5.083         0.584         3.051
  HS02004770HS02004777        39.297        75.468         0.819         0.055         0.377
  HS02004799HS02004480       131.415       245.383         3.680         0.335         1.933
  HS02004792HS02004799       119.090       220.672         3.497         0.327         1.853
  HS02004788HS02004792        68.398       126.862         2.388         0.235         1.309
  HS02004785HS02004788        40.735        77.764         0.969         0.074         0.471
  HS02004777HS02004785        40.060        76.669         0.909         0.067         0.434
  HS02004480HS02004478       165.960       312.612         4.244         0.375         2.196
  HS02004479HS02004480        38.148        72.979         0.884         0.079         0.462
  HS02004862HS02004870        21.017        40.119         0.536         0.043         0.270
  HS02004848HS02004852         8.058        15.280         0.167         0.011         0.077
  HS02004856HS02004862        14.072        27.342         0.284         0.019         0.133
  HS02004852HS02004856         8.064        15.291         0.167         0.011         0.077
  HS02004802HS02004478       102.891       186.897         5.163         0.576         3.055
  HS02004478WS02006287       268.268       498.567         9.364         0.945         5.225
  HS02004817HS02004807        86.891       154.868         4.957         0.568         2.972
  HS02004807HS02004802       103.117       187.250         5.195         0.580         3.075
  YS02001759YS02001757       348.270       633.769         6.983         0.483         3.411
  YS02001762YS02001759       149.429       271.286         3.236         0.227         1.606
  YS02001765YS02001762       149.606       272.049         3.260         0.230         1.620
  YS02001770YS02001767       148.826       271.832         3.053         0.199         1.483
  YS02001774YS02001770       165.902       319.465         3.221         0.212         1.557
  YS02001779YS02001774       164.812       317.236         3.305         0.226         1.617
  YS02001649YS02001757       299.422       530.298         6.025         0.421         2.886
  YS02001767YS02001765       150.198       273.484         3.288         0.232         1.635
  YS02006561YS02001783       935.829      1716.197        19.827         1.488         9.895
  YS02001783YS02001784       935.679      1715.950        19.822         1.487         9.892
  YS02001784YS02001785       942.989      1727.656        20.535         1.577        10.338
  YS02001788YS02001790       943.531      1728.518        20.606         1.586        10.384
  YS02001790YS02001791       944.527      1730.136        20.705         1.598        10.446
  YS02001791YS02001793       944.398      1729.900        20.700         1.598        10.443
  YS02001910YS02001907       330.071       599.151         8.231         0.642         4.253
  YS02001786YS02001788       943.159      1727.930        20.562         1.580        10.356
  YS02001915YS02001910       330.182       599.329         8.188         0.636         4.223
  YS02001918YS02001915       159.926       277.977         4.660         0.433         2.537
  YS02001923YS02001920       137.638       241.460         2.675         0.188         1.302
  YS02001926YS02001923       136.674       239.889         2.594         0.178         1.253
  YS02001929YS02001926       136.173       239.034         2.555         0.174         1.228
  YS02001920YS02001918       157.904       274.000         4.592         0.427         2.499
  YS02001629YS02163301       103.456       183.311         2.170         0.140         1.012
  YS02001619YS02001622       146.388       262.918         3.031         0.197         1.414
  YS02001622YS02001625       145.227       261.083         3.003         0.195         1.401
  YS02001625YS02001629       104.557       185.134         2.194         0.141         1.022
  YS02163301YS02001633       103.169       182.827         2.162         0.140         1.009
  YS02163601YS02164001       361.956       646.048         7.114         0.502         3.403
  YS02164001YS02001641       361.459       645.211         7.094         0.500         3.392
  YS02001641YS02001644       361.696       645.535         7.093         0.500         3.390
  YS02001647YS02001649       343.375       617.240         6.795         0.474         3.239
  YS02006553YS02006556       657.406      1199.968        14.230         1.095         7.177
  YS02006556YS02006558       657.309      1199.772        14.198         1.090         7.155
  YSB6556YSB1171              21.954        42.199         0.451         0.038         0.229
  YS02001907YS02006553       657.538      1200.237        14.245         1.096         7.186
  YS02006558YS02006561       935.858      1716.245        19.827         1.488         9.895
  YS02001633YS02163601       362.667       647.154         7.094         0.498         3.386
  YS02001644YS02001647       348.586       626.640         6.884         0.481         3.281
  YS02001745YS02001748       210.391       386.968         4.760         0.334         2.380
  YS02001748YS02001751       208.361       383.135         4.798         0.343         2.413
  YS02001751YS02001754       207.413       381.585         4.781         0.342         2.406
  YS02001754YS02001757       208.181       382.740         4.945         0.365         2.512
  YS02001882YS02001884         2.847         4.916         0.057         0.004         0.029
  YS02001884YS02001887         6.868        12.170         0.134         0.010         0.067
  YS02001890YS02001895       389.415       720.562         7.188         0.539         3.508
  YS02001895YS02001898       389.217       720.276         7.181         0.539         3.504
  YS02001898YS02001901       388.988       719.884         7.176         0.538         3.501
  YS02001901YS02001904       388.834       719.663         7.183         0.539         3.506
  YS02001904YS02001907       389.024       719.941         7.236         0.547         3.541
  YS02001887YS02001890       390.214       721.756         7.243         0.546         3.541
  YS02001652YS02001649       151.180       276.563         3.084         0.222         1.446
  YS02001655YS02001652       151.722       277.447         3.099         0.223         1.453
  YS02001658YS02001655       151.204       276.636         3.012         0.211         1.397
  YS02001661YS02001658       155.182       283.772         3.092         0.217         1.434
  YS02001664YS02001661       175.229       317.359         3.534         0.247         1.636
  YSB1154YSB6556              21.533        41.530         0.402         0.032         0.198
  YSB1174YSB1171              14.655        28.292         0.298         0.024         0.150
  YSB1171HS02004479           38.107        72.913         0.888         0.079         0.465
  HS02004881HS02006253        42.428        82.898         0.928         0.067         0.456
  YS02001793JiankangQianchi       948.536      1736.629        20.879         1.617        10.546
  YS02001757CaochengTiaoxuchi       650.429      1163.418        13.785         0.981         6.769
  WSF200WS02003060           850.635      1561.728        22.426         1.952        11.809
  1                         2375.963      4066.469       151.646        17.822        91.740
  CC-Pump-1                  267.724       484.090         5.614         0.402         2.758
  CC-Pump-2                  138.446       250.852         2.897         0.207         1.423
  JK-Pump-1                  222.934       411.801         4.883         0.380         2.467
  JK-Pump-2                  476.063       885.176         9.955         0.749         4.964
  XR-Pump-1                  349.191       575.378        29.019         3.553        17.920
  XR-Pump-2                  349.191       575.378        29.019         3.553        17.920
  XR-Pump-3                  349.191       575.378        29.019         3.553        17.920
  XR-Pump-4                  349.191       575.378        29.019         3.553        17.920
  

  Analysis begun on:  Sun Jun 13 15:46:07 2021
  Analysis ended on:  Sun Jun 13 15:46:10 2021
  Total elapsed time: 00:00:03