
  EPA STORM WATER MANAGEMENT MODEL - VERSION 5.1 (Build 5.3.0.dev0)
  --------------------------------------------------------------

  WARNING 04: minimum elevation drop used for Conduit WS02004404WS02004405
  WARNING 03: negative offset ignored for Link YS02001904YS02001907
  
  *********************************************************
  NOTE: The summary statistics displayed in this report are
  based on results found at every computational time step,  
  not just on results from each reporting time step.
  *********************************************************
  
  ****************
  Analysis Options
  ****************
  Flow Units ............... LPS
  Process Models:
    Rainfall/Runoff ........ YES
    RDII ................... NO
    Snowmelt ............... NO
    Groundwater ............ NO
    Flow Routing ........... YES
    Ponding Allowed ........ NO
    Water Quality .......... YES
  Infiltration Method ...... HORTON
  Flow Routing Method ...... DYNWAVE
  Surcharge Method ......... EXTRAN
  Starting Date ............ 08/28/2015 08:00:00
  Ending Date .............. 08/28/2015 15:50:00
  Antecedent Dry Days ...... 8.0
  Report Time Step ......... 00:01:00
  Wet Time Step ............ 00:01:00
  Dry Time Step ............ 00:01:00
  Routing Time Step ........ 5.00 sec
  Variable Time Step ....... YES
  Maximum Trials ........... 8
  Number of Threads ........ 4
  Head Tolerance ........... 0.001500 m
  
  
  **************************        Volume         Depth
  Runoff Quantity Continuity     hectare-m            mm
  **************************     ---------       -------
  Total Precipitation ......         7.641        16.729
  Evaporation Loss .........         0.000         0.000
  Infiltration Loss ........         1.184         2.592
  Surface Runoff ...........         5.481        12.000
  Final Storage ............         0.977         2.139
  Continuity Error (%) .....        -0.016
  
  
  **************************           COD            SS            TN            TP         NH4-N
  Runoff Quality Continuity             kg            kg            kg            kg            kg
  **************************    ----------    ----------    ----------    ----------    ----------
  Initial Buildup ..........     41378.656     70582.865      1804.177       168.684      1032.807
  Surface Buildup ..........        30.344        63.217         2.449         0.220         1.402
  Wet Deposition ...........         0.000         0.000         0.000         0.000         0.000
  Sweeping Removal .........         0.000         0.000         0.000         0.000         0.000
  Infiltration Loss ........       127.934       247.015         2.452         0.174         1.174
  BMP Removal ..............         0.000         0.000         0.000         0.000         0.000
  Surface Runoff ...........      5553.100     10632.121       107.101         7.411        51.076
  Remaining Buildup ........     35725.917     59762.998      1697.031       161.316       981.940
  Continuity Error (%) .....         0.005         0.006         0.002         0.002         0.002
  
  
  **************************        Volume        Volume
  Flow Routing Continuity        hectare-m      10^6 ltr
  **************************     ---------     ---------
  Dry Weather Inflow .......         0.616         6.165
  Wet Weather Inflow .......         5.479        54.792
  Groundwater Inflow .......         0.000         0.000
  RDII Inflow ..............         0.000         0.000
  External Inflow ..........         0.102         1.024
  External Outflow .........         2.218        22.184
  Flooding Loss ............         3.522        35.218
  Evaporation Loss .........         0.000         0.000
  Exfiltration Loss ........         0.000         0.000
  Initial Stored Volume ....         0.076         0.761
  Final Stored Volume ......         0.648         6.480
  Continuity Error (%) .....        -1.818
  
  
  **************************           COD            SS            TN            TP         NH4-N
  Quality Routing Continuity            kg            kg            kg            kg            kg
  **************************    ----------    ----------    ----------    ----------    ----------
  Dry Weather Inflow .......      1541.201      2465.922       147.955        18.494        92.472
  Wet Weather Inflow .......      5552.172     10630.526       107.081         7.410        51.067
  Groundwater Inflow .......         0.000         0.000         0.000         0.000         0.000
  RDII Inflow ..............         0.000         0.000         0.000         0.000         0.000
  External Inflow ..........       183.418       293.469        17.608         2.201        11.005
  External Outflow .........      2700.808      4837.399       144.210        16.386        85.687
  Flooding Loss ............      3884.404      7360.382        99.701         8.740        52.425
  Exfiltration Loss ........         0.000         0.000         0.000         0.000         0.000
  Mass Reacted .............         0.000         0.000         0.000         0.000         0.000
  Initial Stored Mass ......         0.000         0.000         0.000         0.000         0.000
  Final Stored Mass ........       566.412       983.277        24.997         2.652        14.443
  Continuity Error (%) .....         1.720         1.560         1.371         1.164         1.287
  
  
  *************************
  Highest Continuity Errors
  *************************
  Node HS02004842 (10.96%)
  Node YS02001884 (9.62%)
  Node JK-storage (-9.26%)
  Node HS02004817 (2.13%)
  Node YSB1171 (1.97%)
  
  
  ***************************
  Time-Step Critical Elements
  ***************************
  Link WS02006252WS02006251 (68.49%)
  Link WS02006280WS02006229 (11.63%)
  Link YS02001793JiankangQianchi (4.22%)
  Link WS02004404WS02004405 (2.94%)
  Link WS02006238WS02006235 (2.93%)
  
  
  ********************************
  Highest Flow Instability Indexes
  ********************************
  Link WS02006113WS02006111 (36)
  Link YS02163601YS02164001 (29)
  Link YS02163301YS02001633 (29)
  Link YS02001629YS02163301 (28)
  Link YS02001619YS02001622 (27)
  
  
  *************************
  Routing Time Step Summary
  *************************
  Minimum Time Step           :     0.10 sec
  Average Time Step           :     1.07 sec
  Maximum Time Step           :     5.00 sec
  Percent in Steady State     :    -0.00
  Average Iterations per Step :     3.85
  Percent Not Converging      :    15.04
  
  
  ***************************
  Subcatchment Runoff Summary
  ***************************
  
  ------------------------------------------------------------------------------------------------------------------------------
                            Total      Total      Total      Total     Imperv       Perv      Total       Total     Peak  Runoff
                           Precip      Runon       Evap      Infil     Runoff     Runoff     Runoff      Runoff   Runoff   Coeff
  Subcatchment                 mm         mm         mm         mm         mm         mm         mm    10^6 ltr      LPS
  ------------------------------------------------------------------------------------------------------------------------------
  sub0                      16.73       0.00       0.00       0.71      15.51       0.47      15.98        0.01     3.87   0.955
  sub1                      16.73       0.00       0.00       1.18      14.80       0.66      15.46        0.10    26.74   0.924
  sub2                      16.73       0.00       0.00       4.79      10.46       1.40      11.85        0.11    25.81   0.708
  sub3                      16.73       0.00       0.00       5.01      10.42       1.18      11.60        0.26    56.97   0.693
  sub4                      16.73       0.00       0.00       1.28      14.64       0.56      15.20        0.32    66.74   0.909
  sub5                      16.73       0.00       0.00       0.73      15.46       0.44      15.91        0.18    46.91   0.951
  sub7                      16.73       0.00       0.00       0.93      15.16       0.58      15.74        0.05    14.85   0.941
  sub8                      16.73       0.00       0.00       0.94      15.15       0.57      15.72        0.10    27.42   0.940
  sub9                      16.73       0.00       0.00       0.94      15.15       0.57      15.72        0.08    20.52   0.940
  sub10                     16.73       0.00       0.00       0.83      15.30       0.50      15.81        0.17    46.04   0.945
  sub11                     16.73       0.00       0.00       0.83      15.32       0.51      15.83        0.18    50.62   0.947
  sub12                     16.73       0.00       0.00       1.34      14.51       0.83      15.34        0.13    39.22   0.917
  sub14                     16.73       0.00       0.00       0.94      15.15       0.57      15.72        0.15    40.40   0.939
  sub15                     16.73       0.00       0.00       3.54      11.65       1.48      13.13        0.23    57.86   0.785
  sub16                     16.73       0.00       0.00       3.72      11.17       1.80      12.97        0.14    37.34   0.776
  sub17                     16.73       0.00       0.00       3.62      11.33       1.73      13.07        0.11    30.57   0.781
  sub22                     16.73       0.00       0.00       5.27       9.49       1.92      11.42        0.72   183.11   0.683
  sub23                     16.73       0.00       0.00       4.37      10.50       1.82      12.32        0.59   153.57   0.736
  sub60                     16.73       0.00       0.00       1.74      12.78       0.27      13.05        3.96   446.24   0.780
  sub61                     16.73       0.00       0.00       2.46      12.72       0.38      13.11        4.04   542.53   0.784
  sub62                     16.73       0.00       0.00       1.06      13.91       0.27      14.19        4.36   558.01   0.848
  sub63                     16.73       0.00       0.00       4.39      11.06       0.46      11.52        3.49   496.40   0.689
  sub64                     16.73       0.00       0.00       2.23      12.28       0.28      12.56        3.82   424.95   0.751
  sub65                     16.73       0.00       0.00       1.91      12.51       0.27      12.77        3.93   431.32   0.764
  sub66                     16.73       0.00       0.00       4.54      10.46       0.31      10.78        3.31   388.44   0.644
  sub67                     16.73       0.00       0.00       1.01      14.45       0.32      14.78        4.56   675.76   0.883
  sub68                     16.73       0.00       0.00       1.95      13.33       0.39      13.71        4.22   589.75   0.820
  sub69                     16.73       0.00       0.00       2.00      13.62       0.51      14.12        3.30   542.07   0.844
  sub70                     16.73      14.42       0.00       8.47      19.01       2.12      21.13        4.84   534.50   0.678
  sub71                     16.73       0.00       0.00       1.08      13.65       0.25      13.90        3.28   394.68   0.831
  sub72                     16.73       0.00       0.00       1.02      11.50       0.15      11.65        2.37   206.66   0.697
  1                         16.73      20.58       0.00       1.37      22.38       7.20      29.58        6.95   612.18   0.793
  2                         16.73       0.00       0.00       3.02       4.04       3.18       7.22        2.89   331.58   0.431
  
  
  ****************************
  Subcatchment Washoff Summary
  ****************************
  
  ------------------------------------------------------------------------------------------
                                 COD            SS            TN            TP         NH4-N
  Subcatchment                    kg            kg            kg            kg            kg
  ------------------------------------------------------------------------------------------
  sub0                         3.641         7.161         0.064         0.005         0.031
  sub1                        15.670        31.767         0.296         0.021         0.143
  sub2                        10.304        20.454         0.214         0.015         0.099
  sub3                        25.293        49.815         0.517         0.036         0.240
  sub4                        36.168        74.260         0.714         0.044         0.344
  sub5                        35.763        71.366         0.649         0.050         0.316
  sub7                         7.894        16.212         0.150         0.010         0.073
  sub8                        11.755        24.726         0.234         0.014         0.113
  sub9                        10.113        20.966         0.196         0.013         0.095
  sub10                       29.347        59.341         0.545         0.040         0.265
  sub11                       28.395        58.052         0.536         0.037         0.260
  sub12                       24.463        49.072         0.450         0.034         0.218
  sub14                       21.697        44.543         0.414         0.028         0.200
  sub15                       29.696        58.821         0.572         0.042         0.270
  sub16                       19.246        38.050         0.367         0.028         0.174
  sub17                       17.687        34.653         0.330         0.026         0.156
  sub22                       95.915       186.896         1.820         0.139         0.857
  sub23                       54.382       109.539         1.141         0.076         0.527
  sub60                      353.947       679.509         6.988         0.437         3.357
  sub61                      439.695       840.113         8.188         0.570         3.952
  sub62                      449.790       873.119         8.744         0.564         4.209
  sub63                      328.186       618.356         6.505         0.463         3.037
  sub64                      450.924       835.563         8.299         0.611         3.976
  sub65                      460.537       856.688         8.527         0.617         4.090
  sub66                      259.427       485.147         5.248         0.348         2.463
  sub67                      667.181      1281.068        12.075         0.900         5.853
  sub68                      479.473       924.467         9.153         0.628         4.389
  sub69                      429.286       835.450         8.068         0.576         3.873
  sub70                      758.301      1478.311        15.194         1.074         7.173
  sub71                      296.268       580.620         6.027         0.356         2.890
  sub72                      247.759       452.374         4.612         0.320         2.223
  1                          576.917      1130.968        11.723         0.829         5.484
  2                           65.566       118.435         1.802         0.109         0.773
  ------------------------------------------------------------------------------------------
  System                    6740.687     12945.882       130.363         9.060        62.122
  
  
  ******************
  Node Depth Summary
  ******************
  
  ---------------------------------------------------------------------------------
                                 Average  Maximum  Maximum  Time of Max    Reported
                                   Depth    Depth      HGL   Occurrence   Max Depth
  Node                 Type       Meters   Meters   Meters  days hr:min      Meters
  ---------------------------------------------------------------------------------
  WS02001211           JUNCTION     0.78     0.85     5.69     0  02:01        0.85
  WS02001212           JUNCTION     0.49     0.58     5.64     0  02:02        0.58
  WS02001213           JUNCTION     0.73     0.86     5.62     0  02:02        0.86
  WS02003069           JUNCTION     0.54     0.72     5.31     0  02:01        0.72
  WS02003072           JUNCTION     0.60     0.77     5.14     0  02:01        0.77
  WS02003073           JUNCTION     0.37     0.48     4.55     0  02:02        0.48
  WS02003060           JUNCTION     0.48     0.64     5.57     0  02:00        0.64
  WS02003066           JUNCTION     0.27     0.39     5.94     0  01:55        0.39
  WS02003059           JUNCTION     0.78     0.91     5.60     0  02:01        0.91
  WS02003067           JUNCTION     0.63     0.83     6.15     0  01:54        0.83
  WS02004401           JUNCTION     0.78     1.31     7.31     0  01:52        1.29
  WS02004402           JUNCTION     0.80     1.30     7.26     0  01:52        1.27
  WS02004403           JUNCTION     0.82     1.27     7.20     0  01:52        1.24
  WS02004404           JUNCTION     0.89     1.32     7.17     0  01:52        1.28
  WS02004406           JUNCTION     0.88     1.20     7.03     0  01:52        1.19
  WS02004409           JUNCTION     0.59     0.98     6.75     0  01:55        0.98
  WS02004410           JUNCTION     0.60     0.97     6.69     0  01:55        0.96
  WS02004411           JUNCTION     0.61     0.94     6.62     0  01:55        0.94
  WS02004412           JUNCTION     0.62     0.92     6.56     0  01:55        0.91
  WS02004413           JUNCTION     0.77     1.03     6.50     0  01:55        1.03
  WS02004405           JUNCTION     0.88     1.28     7.13     0  01:52        1.25
  WS02006109           JUNCTION     0.88     1.76     8.37     0  01:53        1.76
  WS02006110           JUNCTION     0.85     1.55     8.13     0  01:53        1.54
  WS02006111           JUNCTION     0.29     1.04     7.75     0  01:52        0.97
  WS02006112           JUNCTION     0.97     1.66     7.54     0  01:52        1.64
  WS02006113           JUNCTION     0.41     1.08     7.97     0  01:52        1.01
  WS02006115           JUNCTION     0.68     1.32     7.46     0  01:52        1.30
  WS02006116           JUNCTION     0.76     1.35     7.39     0  01:52        1.33
  WS02006230           JUNCTION     0.92     1.99     8.73     0  01:53        1.97
  WS02006231           JUNCTION     0.67     1.63     8.75     0  01:53        1.60
  WS02006232           JUNCTION     0.82     1.72     8.76     0  01:53        1.68
  WS02006234           JUNCTION     0.77     1.60     8.75     0  01:53        1.59
  WS02006235           JUNCTION     0.82     1.60     8.77     0  01:53        1.58
  WS02006238           JUNCTION     0.85     1.61     8.76     0  01:53        1.60
  WS02006240           JUNCTION     0.76     1.45     8.74     0  01:53        1.43
  WS02006242           JUNCTION     0.83     1.46     8.73     0  01:53        1.45
  WS02006243           JUNCTION     0.72     1.30     8.72     0  01:53        1.29
  WS02006245           JUNCTION     0.69     1.22     8.71     0  01:53        1.21
  WS02006247           JUNCTION     0.71     1.20     8.70     0  01:53        1.20
  WS02006248           JUNCTION     0.65     1.10     8.69     0  01:50        1.10
  WS02006249           JUNCTION     0.67     1.09     8.69     0  01:50        1.09
  WS02006239           JUNCTION     0.81     1.54     8.75     0  01:53        1.53
  WS02006251           JUNCTION     0.66     1.24     8.91     0  06:10        1.17
  WS02006252           JUNCTION     0.42     0.80     9.04     0  06:10        0.73
  WS02006253           JUNCTION     0.69     1.33     8.97     0  01:51        1.20
  WS02006256           JUNCTION     1.68     2.35     9.28     0  00:00        2.35
  WS02004138           JUNCTION     0.19     0.20     7.45     0  00:00        0.19
  WS02004139           JUNCTION     0.72     0.79     5.70     0  02:02        0.79
  WS02004407           JUNCTION     0.26     0.40     6.72     0  01:53        0.40
  WS02006228           JUNCTION     0.91     1.94     8.60     0  01:53        1.92
  WS02006229           JUNCTION     0.90     2.02     8.72     0  01:53        2.01
  WS02006280           JUNCTION     0.07     0.33     8.60     0  01:52        0.31
  WS02006284           JUNCTION     0.37     0.66     9.06     0  01:54        0.66
  WS02006287           JUNCTION     0.10     0.40     9.36     0  01:54        0.40
  WSF200               JUNCTION     0.26     0.44     5.68     0  01:55        0.44
  HS02004901           JUNCTION     0.13     0.38    10.21     0  01:53        0.38
  HS02004881           JUNCTION     0.01     0.05     9.08     0  01:54        0.05
  HS02004876           JUNCTION     0.04     0.17     9.20     0  01:54        0.17
  HS02004870           JUNCTION     0.02     0.10     9.38     0  01:54        0.10
  HS02004862           JUNCTION     0.02     0.11     9.50     0  01:55        0.11
  HS02004856           JUNCTION     0.08     0.15     9.58     0  01:54        0.15
  HS02004852           JUNCTION     0.01     0.08     9.59     0  01:54        0.08
  HS02004848           JUNCTION     0.01     0.07     9.67     0  01:54        0.07
  HS02004842           JUNCTION     0.34     0.40     9.67     0  01:54        0.40
  HS02004837           JUNCTION     0.03     0.09     9.67     0  01:54        0.09
  HS02004830           JUNCTION     0.04     0.11     9.58     0  01:55        0.11
  HS02004824           JUNCTION     0.03     0.15     9.55     0  01:54        0.15
  HS02004817           JUNCTION     0.45     0.71     9.56     0  01:54        0.71
  HS02004807           JUNCTION     0.13     0.38     9.55     0  01:55        0.38
  HS02004802           JUNCTION     0.17     0.41     9.54     0  01:55        0.41
  HS02004799           JUNCTION     0.12     0.48     9.69     0  01:53        0.48
  HS02004792           JUNCTION     0.04     0.22     9.75     0  01:53        0.22
  HS02004788           JUNCTION     0.03     0.16    10.06     0  01:54        0.16
  HS02004785           JUNCTION     0.05     0.25    10.15     0  01:53        0.25
  HS02004777           JUNCTION     0.15     0.40    10.20     0  01:53        0.40
  HS02004770           JUNCTION     0.12     0.37    10.21     0  01:53        0.37
  HS02004480           JUNCTION     0.09     0.39     9.64     0  01:53        0.39
  HS02004479           JUNCTION     0.12     0.43     9.64     0  01:53        0.43
  HS02004478           JUNCTION     0.07     0.29     9.52     0  01:54        0.29
  YS02001745           JUNCTION     0.77     0.94     8.46     0  03:01        0.94
  YS02001748           JUNCTION     1.18     1.89     8.97     0  01:47        1.37
  YS02001751           JUNCTION     1.37     1.89     8.76     0  01:47        1.56
  YS02001754           JUNCTION     1.62     1.93     8.54     0  01:47        1.83
  YS02001762           JUNCTION     1.82     2.04     8.44     0  02:12        2.03
  YS02001765           JUNCTION     1.78     1.99     8.44     0  02:12        1.97
  YS02001767           JUNCTION     1.74     1.94     8.43     0  02:12        1.93
  YS02001770           JUNCTION     1.73     1.92     8.42     0  03:02        1.92
  YS02001774           JUNCTION     1.80     1.98     8.40     0  03:02        1.97
  YS02001779           JUNCTION     1.54     1.68     8.37     0  01:51        1.68
  YS02001882           JUNCTION     0.61     1.83     8.55     0  01:48        1.63
  YS02001884           JUNCTION     0.71     1.82     8.44     0  01:48        1.73
  YS02001759           JUNCTION     1.86     2.08     8.44     0  02:12        2.06
  YS02001887           JUNCTION     0.79     1.85     8.39     0  01:48        1.81
  YS02001890           JUNCTION     0.82     1.81     8.32     0  01:50        1.81
  YS02001898           JUNCTION     0.58     1.57     8.31     0  01:51        1.56
  YS02001901           JUNCTION     0.70     1.68     8.29     0  01:58        1.67
  YS02001904           JUNCTION     0.68     1.64     8.27     0  01:51        1.64
  YS02001907           JUNCTION     1.01     1.96     8.25     0  01:51        1.96
  YS02001910           JUNCTION     0.80     1.85     8.36     0  01:51        1.80
  YS02001915           JUNCTION     0.60     1.71     8.42     0  01:51        1.64
  YS02001918           JUNCTION     0.34     1.48     8.54     0  01:51        1.37
  YS02001619           JUNCTION     1.33     1.55     8.48     0  01:45        1.48
  YS02001629           JUNCTION     1.68     1.85     8.40     0  01:46        1.84
  YS02001641           JUNCTION     1.78     1.93     8.37     0  01:48        1.93
  YS02001644           JUNCTION     1.78     1.92     8.35     0  01:48        1.92
  YS02001652           JUNCTION     1.64     2.09     8.68     0  03:57        1.98
  YS02001655           JUNCTION     1.39     2.00     8.85     0  04:06        1.84
  YS02001920           JUNCTION     0.45     1.61     8.62     0  01:51        1.47
  YS02001923           JUNCTION     0.28     1.41     8.67     0  01:51        1.25
  YS02001926           JUNCTION     0.33     1.38     8.83     0  01:51        1.14
  YS02001929           JUNCTION     0.20     0.98     8.68     0  01:52        0.97
  YS02001658           JUNCTION     1.12     1.92     9.06     0  04:06        1.68
  YS02001661           JUNCTION     0.88     2.36     9.77     0  03:57        1.41
  YS02001664           JUNCTION     0.38     0.57     8.50     0  04:16        0.57
  YS02001622           JUNCTION     1.35     1.55     8.45     0  01:45        1.50
  YS02001633           JUNCTION     1.78     1.95     8.41     0  01:48        1.94
  YS02001649           JUNCTION     1.83     2.05     8.44     0  03:40        2.04
  YS02001757           JUNCTION     1.96     2.17     8.43     0  03:50        2.16
  YS02001895           JUNCTION     0.58     1.57     8.31     0  02:03        1.56
  YS02001625           JUNCTION     1.63     1.78     8.38     0  01:45        1.78
  YS02163301           JUNCTION     1.71     1.90     8.42     0  01:46        1.88
  YS02163601           JUNCTION     1.83     1.99     8.39     0  01:49        1.98
  YS02164001           JUNCTION     1.76     1.92     8.38     0  01:49        1.91
  YS02001647           JUNCTION     1.62     1.80     8.41     0  03:55        1.79
  YSB1154              JUNCTION     0.26     0.58     9.64     0  01:53        0.58
  YSB6556              JUNCTION     0.16     0.47     9.64     0  01:53        0.47
  YSB1174              JUNCTION     0.21     0.53     9.64     0  01:53        0.53
  YSB1171              JUNCTION     0.42     0.74     9.64     0  01:53        0.74
  YS02006553           JUNCTION     1.01     1.97     8.25     0  02:06        1.97
  YS02006561           JUNCTION     0.35     1.14     7.80     0  01:50        1.08
  YS02006556           JUNCTION     0.98     1.93     8.25     0  02:12        1.93
  YS02006558           JUNCTION     1.02     1.98     8.24     0  02:14        1.97
  YS02001783           JUNCTION     0.57     1.63     7.77     0  01:45        1.47
  YS02001784           JUNCTION     0.58     1.49     7.56     0  01:50        1.41
  YS02001786           JUNCTION     0.51     1.35     7.38     0  01:45        1.26
  YS02001788           JUNCTION     0.43     1.35     7.33     0  01:45        1.14
  YS02001790           JUNCTION     0.54     1.65     7.29     0  05:55        1.31
  YS02001791           JUNCTION     0.50     1.72     7.19     0  05:53        1.29
  YS02001793           JUNCTION     0.70     3.60     8.43     0  04:28        1.82
  WSC                  OUTFALL      0.37     0.48     1.15     0  02:02        0.48
  JK-storage           STORAGE      3.07     5.80     6.60     0  01:44        5.80
  CC-storage           STORAGE      1.21     1.42     8.42     0  03:01        1.42
  XR-storage           STORAGE      7.16     7.72     5.72     0  02:06        7.72
  
  
  *******************
  Node Inflow Summary
  *******************
  
  -------------------------------------------------------------------------------------------------
                                  Maximum  Maximum                  Lateral       Total        Flow
                                  Lateral    Total  Time of Max      Inflow      Inflow     Balance
                                   Inflow   Inflow   Occurrence      Volume      Volume       Error
  Node                 Type           LPS      LPS  days hr:min    10^6 ltr    10^6 ltr     Percent
  -------------------------------------------------------------------------------------------------
  WS02001211           JUNCTION      7.35   389.54     0  04:29       0.207        10.3       0.395
  WS02001212           JUNCTION      0.00   391.61     0  04:29           0        10.2       0.226
  WS02001213           JUNCTION      0.00   393.63     0  04:30           0        10.2       0.292
  WS02003069           JUNCTION      0.32  1344.56     0  02:00     0.00902        22.3       0.157
  WS02003072           JUNCTION      0.00  1344.61     0  02:01           0        22.2       0.188
  WS02003073           JUNCTION      1.82  1346.83     0  02:01      0.0514        22.2       0.217
  WS02003060           JUNCTION     16.53  1344.28     0  02:01       0.466        22.3       0.148
  WS02003066           JUNCTION      0.00   958.00     0  01:55           0        11.7       0.039
  WS02003059           JUNCTION      0.00   397.11     0  04:30           0        10.2       0.393
  WS02003067           JUNCTION      0.00   957.69     0  01:55           0        11.7       0.080
  WS02004401           JUNCTION      0.00   970.82     0  01:53           0        11.9       0.168
  WS02004402           JUNCTION      0.00   970.86     0  01:53           0        11.9       0.161
  WS02004403           JUNCTION      0.00   971.31     0  01:53           0        11.9       0.147
  WS02004404           JUNCTION      0.16   971.83     0  01:53     0.00457        11.9       0.110
  WS02004406           JUNCTION      0.00   972.67     0  01:53           0        11.9       0.270
  WS02004409           JUNCTION      0.00   971.08     0  01:53           0        11.8       0.135
  WS02004410           JUNCTION      0.00   958.88     0  01:54           0        11.8       0.154
  WS02004411           JUNCTION      0.00   956.10     0  01:55           0        11.8       0.159
  WS02004412           JUNCTION      0.00   957.54     0  01:55           0        11.8       0.172
  WS02004413           JUNCTION      0.00   957.70     0  01:55           0        11.7       0.259
  WS02004405           JUNCTION      0.04   973.51     0  01:53     0.00107        11.9       0.168
  WS02006109           JUNCTION      1.23   938.96     0  01:53      0.0347        11.9       0.169
  WS02006110           JUNCTION      0.00   939.19     0  01:53           0        11.9       0.151
  WS02006111           JUNCTION      0.00   938.97     0  01:53           0        11.9       0.028
  WS02006112           JUNCTION     30.57   969.38     0  01:53       0.112          12       0.218
  WS02006113           JUNCTION      0.00   939.02     0  01:53           0        11.9       0.075
  WS02006115           JUNCTION      0.00   969.10     0  01:53           0          12       0.155
  WS02006116           JUNCTION      0.00   970.26     0  01:53           0          12       0.153
  WS02006230           JUNCTION     10.28   533.12     0  06:10        0.29        8.85       0.139
  WS02006231           JUNCTION      0.00   522.58     0  06:10           0        8.56       0.088
  WS02006232           JUNCTION      0.00   522.68     0  06:10           0        8.57       0.177
  WS02006234           JUNCTION      0.00   523.41     0  06:10           0        8.57       0.076
  WS02006235           JUNCTION      0.00   523.85     0  06:12           0        8.63       0.104
  WS02006238           JUNCTION      0.00   413.43     0  05:30           0        5.55       0.104
  WS02006240           JUNCTION      0.00   412.80     0  05:30           0        5.54       0.184
  WS02006242           JUNCTION      0.00   412.89     0  05:30           0        5.53       0.240
  WS02006243           JUNCTION      0.00   413.35     0  05:30           0        5.53       0.088
  WS02006245           JUNCTION      0.00   413.58     0  05:30           0        5.53       0.174
  WS02006247           JUNCTION      0.00   413.45     0  05:30           0        5.53       0.119
  WS02006248           JUNCTION      0.00   413.61     0  05:30           0        5.55       0.076
  WS02006249           JUNCTION      0.00   495.93     0  02:20           0        6.43       0.138
  WS02006239           JUNCTION      0.00   412.84     0  05:30           0        5.54       0.102
  WS02006251           JUNCTION      0.08   494.62     0  02:20     0.00217        6.49       0.127
  WS02006252           JUNCTION      0.00   400.00     0  02:20           0        5.82       0.006
  WS02006253           JUNCTION      3.87   156.77     0  01:54      0.0129       0.667       0.405
  WS02006256           JUNCTION      0.00   983.00     0  00:00           0        11.7      -0.006
  WS02004138           JUNCTION      0.00   380.00     0  00:00           0        10.1       0.064
  WS02004139           JUNCTION      0.32   396.51     0  00:00     0.00905        10.1       0.449
  WS02004407           JUNCTION      0.00   973.16     0  01:53           0        11.8       0.059
  WS02006228           JUNCTION      0.00   938.28     0  01:53           0        11.9       0.124
  WS02006229           JUNCTION      0.00   994.23     0  01:52           0        11.9       0.105
  WS02006280           JUNCTION      0.00   736.09     0  01:54           0        3.11       0.013
  WS02006284           JUNCTION      0.10   735.84     0  01:54      0.0027        3.11       0.019
  WS02006287           JUNCTION      0.00   735.65     0  01:54           0        3.11       0.024
  WSF200               JUNCTION      0.00   958.06     0  01:56           0        11.7       0.034
  HS02004901           JUNCTION     37.34    37.34     0  01:51       0.136       0.136       1.311
  HS02004881           JUNCTION     14.85   153.29     0  01:54       0.053       0.601       0.110
  HS02004876           JUNCTION     26.74   139.06     0  01:54       0.103       0.549       0.099
  HS02004870           JUNCTION     27.42   112.65     0  01:54         0.1       0.446       0.025
  HS02004862           JUNCTION     26.01    86.18     0  01:54       0.116       0.346       0.050
  HS02004856           JUNCTION     20.52    60.23     0  01:54      0.0756       0.231       0.629
  HS02004852           JUNCTION      0.00    40.37     0  01:54           0       0.155       0.036
  HS02004848           JUNCTION     56.97    56.97     0  01:56       0.261       0.261       0.019
  HS02004842           JUNCTION      0.00    18.18     0  02:06           0       0.119      12.305
  HS02004837           JUNCTION     52.39    67.87     0  01:54       0.353       0.459       0.178
  HS02004830           JUNCTION      0.15    67.98     0  01:54     0.00423       0.449       0.275
  HS02004824           JUNCTION     66.79   134.69     0  01:56       0.318       0.767       0.071
  HS02004817           JUNCTION      0.60   136.96     0  01:57      0.0169       0.783       2.175
  HS02004807           JUNCTION     50.62   184.18     0  01:55       0.184       0.952       0.461
  HS02004802           JUNCTION      0.00   183.92     0  01:56           0        0.95       0.414
  HS02004799           JUNCTION     40.40   470.75     0  01:53        0.15        1.87       0.160
  HS02004792           JUNCTION    183.39   430.98     0  01:53       0.729        1.72       0.024
  HS02004788           JUNCTION     59.53   248.80     0  01:53       0.273       0.991       0.040
  HS02004785           JUNCTION      0.15   189.56     0  01:53     0.00423        0.72       0.070
  HS02004777           JUNCTION      0.03   189.71     0  01:52    0.000846        0.72       0.728
  HS02004770           JUNCTION    153.57   190.37     0  01:52       0.587       0.722       0.429
  HS02004480           JUNCTION      0.00   554.34     0  01:53           0        2.18       0.044
  HS02004479           JUNCTION      0.00    83.75     0  01:53           0       0.323       0.229
  HS02004478           JUNCTION      0.00   735.60     0  01:54           0        3.11       0.010
  YS02001745           JUNCTION    446.25   446.25     0  02:16        3.95        3.95       0.250
  YS02001748           JUNCTION      0.04   451.77     0  02:16     0.00127        3.95       0.578
  YS02001751           JUNCTION      0.01   452.10     0  02:16     0.00031        3.92       0.611
  YS02001754           JUNCTION      0.26   452.47     0  02:16     0.00733        3.91       0.627
  YS02001762           JUNCTION      0.00   433.79     0  01:55           0        2.09       1.022
  YS02001765           JUNCTION      0.00   434.46     0  01:55           0        2.09       1.173
  YS02001767           JUNCTION      0.54   433.67     0  01:55      0.0151        2.11       1.709
  YS02001770           JUNCTION    558.16   668.14     0  03:01        4.36        4.97       0.630
  YS02001774           JUNCTION      0.00   668.15     0  03:01           0        3.45       0.719
  YS02001779           JUNCTION      0.01   668.17     0  03:01    0.000141        3.43       0.451
  YS02001882           JUNCTION      0.00    62.44     0  01:48           0      0.0294       7.335
  YS02001884           JUNCTION      0.00    70.51     0  01:47           0      0.0666      10.649
  YS02001759           JUNCTION    542.57   878.72     0  01:56        4.04        5.49       0.415
  YS02001887           JUNCTION    676.21   677.00     0  02:12        4.57         4.6       0.188
  YS02001890           JUNCTION      0.00   677.58     0  02:12           0        4.56       0.202
  YS02001898           JUNCTION      0.00   526.56     0  01:51           0        4.27       0.083
  YS02001901           JUNCTION      0.00   527.63     0  01:51           0        4.27       0.153
  YS02001904           JUNCTION      0.00   528.28     0  01:51           0        4.26       0.143
  YS02001907           JUNCTION      0.00  1170.59     0  01:52           0        9.98       0.248
  YS02001910           JUNCTION      0.00   656.39     0  01:52           0        5.74       0.223
  YS02001915           JUNCTION    394.70   655.93     0  01:52        3.28        5.79       0.100
  YS02001918           JUNCTION      0.00   373.87     0  01:52           0        2.54       0.074
  YS02001619           JUNCTION    388.44   388.44     0  02:16         3.3         3.3       0.367
  YS02001629           JUNCTION      0.00   220.10     0  01:48           0        1.43       2.036
  YS02001641           JUNCTION      0.00   456.71     0  01:48           0        5.09       0.408
  YS02001644           JUNCTION    424.99  1498.24     0  03:01        3.82        13.2       0.197
  YS02001652           JUNCTION      0.00   519.49     0  02:12           0        3.44       0.668
  YS02001655           JUNCTION      0.15   519.26     0  02:12     0.00434        3.47       0.732
  YS02001920           JUNCTION      2.87   373.15     0  01:52      0.0809        2.52       0.128
  YS02001923           JUNCTION      0.04   304.55     0  01:53     0.00106        2.42       0.050
  YS02001926           JUNCTION      0.05   343.02     0  01:51     0.00147        2.39       0.112
  YS02001929           JUNCTION    206.66   206.66     0  03:01        2.37        2.38       0.023
  YS02001658           JUNCTION      0.00   518.94     0  02:12           0        3.49       0.699
  YS02001661           JUNCTION      0.00   742.45     0  01:55           0        3.86      -0.211
  YS02001664           JUNCTION    496.40   496.40     0  02:16        3.49        3.87       0.123
  YS02001622           JUNCTION      0.00   389.10     0  02:16           0        3.29       0.971
  YS02001633           JUNCTION    431.52   456.71     0  01:48        3.93        5.24       0.610
  YS02001649           JUNCTION      0.00  1004.81     0  01:52           0        6.92       0.535
  YS02001757           JUNCTION      0.00  2146.72     0  01:55           0        11.3       0.817
  YS02001895           JUNCTION      0.00   525.35     0  01:51           0        4.27       0.122
  YS02001625           JUNCTION      0.00   436.88     0  02:16           0        3.34       1.183
  YS02163301           JUNCTION      0.00   221.45     0  01:45           0        1.42       1.709
  YS02163601           JUNCTION      0.11   456.54     0  01:48      0.0031        5.11       0.591
  YS02164001           JUNCTION      0.00   456.25     0  01:48           0        5.09       0.390
  YS02001647           JUNCTION      0.00   737.86     0  03:01           0        5.92       0.480
  YSB1154              JUNCTION     46.91    46.91     0  01:52        0.18       0.181       0.806
  YSB6556              JUNCTION      0.00    46.63     0  01:52           0       0.182       0.696
  YSB1174              JUNCTION     39.22    39.22     0  01:50       0.134       0.134       0.962
  YSB1171              JUNCTION      0.00    84.02     0  01:52           0       0.322       2.011
  YS02006553           JUNCTION      0.00   716.08     0  03:35           0        7.28       0.217
  YS02006561           JUNCTION      0.00   982.88     0  02:16           0        11.5       0.006
  YS02006556           JUNCTION      0.00   715.98     0  03:35           0        7.29       0.157
  YS02006558           JUNCTION    590.63   983.73     0  02:13        4.24        11.5       0.044
  YS02001783           JUNCTION      0.00   982.65     0  02:12           0        11.5       0.021
  YS02001784           JUNCTION      1.06   983.80     0  02:16      0.0299        11.5       0.036
  YS02001786           JUNCTION      0.06   983.99     0  02:16     0.00159        11.5       0.043
  YS02001788           JUNCTION      0.07   983.70     0  02:12       0.002        11.5       0.058
  YS02001790           JUNCTION      0.15   983.80     0  02:12     0.00437        11.5       0.116
  YS02001791           JUNCTION      0.00   983.76     0  02:12           0        11.5       0.124
  YS02001793           JUNCTION      0.00   984.43     0  02:12           0        11.5       0.127
  WSC                  OUTFALL       0.00  1347.48     0  02:02           0        22.2       0.000
  JK-storage           STORAGE       0.00   984.18     0  02:12           0        11.6      -8.474
  CC-storage           STORAGE       0.00  2149.16     0  01:55           0        9.25       0.663
  XR-storage           STORAGE    1054.62  1054.62     0  03:01        15.5        16.1      -0.002
  
  
  **********************
  Node Surcharge Summary
  **********************
  
  Surcharging occurs when water rises above the top of the highest conduit.
  ---------------------------------------------------------------------
                                               Max. Height   Min. Depth
                                   Hours       Above Crown    Below Rim
  Node                 Type      Surcharged         Meters       Meters
  ---------------------------------------------------------------------
  WS02004401           JUNCTION        1.35          0.314        1.346
  WS02004402           JUNCTION        1.40          0.298        1.442
  WS02004403           JUNCTION        1.42          0.272        1.758
  WS02004404           JUNCTION        1.76          0.316        2.464
  WS02004406           JUNCTION        1.58          0.205        2.245
  WS02004413           JUNCTION        0.46          0.031        2.169
  WS02004405           JUNCTION        1.65          0.284        2.516
  WS02006109           JUNCTION        4.37          0.935        0.885
  WS02006110           JUNCTION        3.06          0.638        1.212
  WS02006111           JUNCTION        0.34          0.231        1.639
  WS02006112           JUNCTION        3.63          0.660        1.020
  WS02006113           JUNCTION        0.38          0.276        1.654
  WS02006115           JUNCTION        0.76          0.309        1.941
  WS02006116           JUNCTION        0.82          0.293        1.997
  WS02006230           JUNCTION        2.85          0.908        0.662
  WS02006231           JUNCTION        3.41          0.916        0.614
  WS02006232           JUNCTION        4.31          1.016        0.464
  WS02006234           JUNCTION        4.10          0.878        0.362
  WS02006235           JUNCTION        4.19          0.894        0.396
  WS02006238           JUNCTION        4.22          0.894        0.536
  WS02006240           JUNCTION        4.07          0.736        0.654
  WS02006242           JUNCTION        4.14          0.733        0.087
  WS02006243           JUNCTION        3.89          0.587        0.183
  WS02006245           JUNCTION        3.64          0.512        0.338
  WS02006247           JUNCTION        3.66          0.495        0.265
  WS02006248           JUNCTION        3.32          0.380        0.000
  WS02006249           JUNCTION        3.39          0.390        0.000
  WS02006239           JUNCTION        4.12          0.798        0.492
  WS02006251           JUNCTION        2.19          0.211        0.969
  WS02006252           JUNCTION        4.12          0.398        0.702
  WS02006253           JUNCTION        2.42          0.290        2.190
  WS02006256           JUNCTION        6.80          2.050        0.000
  WS02006228           JUNCTION        4.35          1.114        1.086
  HS02004817           JUNCTION        0.15          0.011        1.729
  YS02001748           JUNCTION        6.04          0.809        0.381
  YS02001751           JUNCTION        6.08          0.886        0.314
  YS02001754           JUNCTION        6.14          0.883        0.267
  YS02001762           JUNCTION        6.19          1.040        0.110
  YS02001765           JUNCTION        6.18          0.993        0.107
  YS02001767           JUNCTION        6.18          0.943        0.087
  YS02001770           JUNCTION        6.18          0.893        0.027
  YS02001774           JUNCTION        6.19          0.980        0.070
  YS02001779           JUNCTION        6.13          0.680        0.000
  YS02001882           JUNCTION        1.80          0.830        0.000
  YS02001884           JUNCTION        1.81          0.759        0.111
  YS02001759           JUNCTION        6.20          1.079        0.131
  YS02001887           JUNCTION        1.87          0.801        0.149
  YS02001890           JUNCTION        1.89          0.760        0.000
  YS02001898           JUNCTION        1.77          0.541        0.199
  YS02001901           JUNCTION        1.85          0.678        0.192
  YS02001904           JUNCTION        1.83          0.638        0.212
  YS02001907           JUNCTION        2.39          0.950        0.000
  YS02001910           JUNCTION        1.93          0.850        0.250
  YS02001915           JUNCTION        1.79          0.706        0.294
  YS02001918           JUNCTION        1.65          0.478        0.332
  YS02001619           JUNCTION        6.09          0.547        0.063
  YS02001629           JUNCTION        6.08          0.470        0.000
  YS02001641           JUNCTION        6.18          0.935        0.165
  YS02001644           JUNCTION        6.18          0.920        0.000
  YS02001652           JUNCTION        6.15          1.058        0.072
  YS02001655           JUNCTION        6.10          1.003        0.197
  YS02001920           JUNCTION        1.67          0.613        0.527
  YS02001923           JUNCTION        0.01          0.205        0.615
  YS02001926           JUNCTION        0.01          0.380        0.520
  YS02001658           JUNCTION        6.05          0.921        0.379
  YS02001661           JUNCTION        0.16          1.293        0.097
  YS02001622           JUNCTION        6.10          0.549        0.071
  YS02001633           JUNCTION        6.17          0.933        0.127
  YS02001649           JUNCTION        6.19          1.050        0.000
  YS02001757           JUNCTION        6.23          1.168        0.042
  YS02001895           JUNCTION        1.78          0.568        0.182
  YS02001625           JUNCTION        6.15          0.780        0.000
  YS02163301           JUNCTION        6.17          0.902        0.128
  YS02163601           JUNCTION        6.20          0.992        0.088
  YS02164001           JUNCTION        6.17          0.923        0.177
  YS02001647           JUNCTION        6.15          0.798        0.102
  YS02006553           JUNCTION        2.45          0.970        0.220
  YS02006561           JUNCTION        1.69          0.336        0.814
  YS02006556           JUNCTION        2.10          0.895        0.455
  YS02006558           JUNCTION        2.07          0.878        0.522
  YS02001783           JUNCTION        1.93          0.831        0.769
  YS02001784           JUNCTION        1.91          0.690        0.800
  YS02001786           JUNCTION        1.85          0.554        0.876
  YS02001788           JUNCTION        1.80          0.552        0.928
  YS02001790           JUNCTION        2.32          0.847        0.310
  YS02001791           JUNCTION        2.41          0.924        0.996
  YS02001793           JUNCTION        2.77          2.600        0.000
  
  
  *********************
  Node Flooding Summary
  *********************
  
  Flooding refers to all water that overflows a node, whether it ponds or not.
  --------------------------------------------------------------------------
                                                             Total   Maximum
                                 Maximum   Time of Max       Flood    Ponded
                        Hours       Rate    Occurrence      Volume     Depth
  Node                 Flooded       LPS   days hr:min    10^6 ltr    Meters
  --------------------------------------------------------------------------
  WS02006248              0.22     65.46      0  01:54       0.022     0.000
  WS02006249              2.30    314.10      0  02:20       0.876     0.000
  WS02006256              4.23    978.40      0  00:00       8.620     0.000
  YS02001779              3.26    668.17      0  03:01       3.407     0.000
  YS02001882              0.01     24.08      0  01:48       0.000     0.000
  YS02001890              0.81    160.91      0  02:15       0.274     0.000
  YS02001907              1.53    713.95      0  02:16       2.681     0.000
  YS02001629              0.01     26.86      0  01:46       0.000     0.000
  YS02001644              4.41   1498.24      0  03:01      11.569     0.000
  YS02001649              0.02     32.45      0  03:42       0.001     0.000
  YS02001625              2.15    436.37      0  02:16       1.968     0.000
  YS02001793              0.01    308.66      0  04:28       0.000     0.000
  JK-storage              0.54    568.96      0  01:49       0.645     0.000
  XR-storage              4.70    674.60      0  03:01       5.155     0.000
  
  
  **********************
  Storage Volume Summary
  **********************
  
  --------------------------------------------------------------------------------------------------
                         Average     Avg  Evap Exfil       Maximum     Max    Time of Max    Maximum
                          Volume    Pcnt  Pcnt  Pcnt        Volume    Pcnt     Occurrence    Outflow
  Storage Unit           1000 m3    Full  Loss  Loss       1000 m3    Full    days hr:min        LPS
  --------------------------------------------------------------------------------------------------
  JK-storage               0.154      53     0     0         0.291     100       0  01:44     983.00
  CC-storage               3.364      21     0     0         3.958      25       0  03:01     400.00
  XR-storage               0.859      93     0     0         0.926     100       0  02:06     380.00
  
  
  ***********************
  Outfall Loading Summary
  ***********************
  
  ---------------------------------------------------------------------------------------------------------------------------------
                         Flow       Avg       Max       Total         Total         Total         Total         Total         Total
                         Freq      Flow      Flow      Volume           COD            SS            TN            TP         NH4-N
  Outfall Node           Pcnt       LPS       LPS    10^6 ltr            kg            kg            kg            kg            kg
  ---------------------------------------------------------------------------------------------------------------------------------
  WSC                   99.98    849.13   1347.48      22.184      2701.056      4837.819       144.228        16.388        85.699
  ---------------------------------------------------------------------------------------------------------------------------------
  System                99.98    849.13   1347.48      22.184      2701.056      4837.819       144.228        16.388        85.699
  
  
  ********************
  Link Flow Summary
  ********************
  
  -----------------------------------------------------------------------------
                                 Maximum  Time of Max   Maximum    Max/    Max/
                                  |Flow|   Occurrence   |Veloc|    Full    Full
  Link                 Type          LPS  days hr:min     m/sec    Flow   Depth
  -----------------------------------------------------------------------------
  WS02003066WSF200     CONDUIT    958.06     0  01:56      3.01    0.16    0.33
  WS02006287WS02006284 CONDUIT    735.74     0  01:54      2.45    0.34    0.41
  WS02006284WS02006280 CONDUIT    736.09     0  01:54      2.68    0.31    0.38
  WS02006280WS02006229 CONDUIT    741.15     0  01:52      4.20    0.16    0.58
  WS02006229WS02006228 CONDUIT    938.28     0  01:53      1.87    3.11    1.00
  WS02006256WS02006235 CONDUIT    288.60     0  00:00      4.23    3.05    1.00
  WS02006253WS02006251 CONDUIT    170.12     0  01:51      0.74    0.51    1.00
  WS02006252WS02006251 CONDUIT    404.47     0  06:10      3.22    1.48    1.00
  WS02006251WS02006249 CONDUIT    495.93     0  02:20      1.29    1.43    1.00
  WS02006249WS02006248 CONDUIT    413.61     0  05:30      1.19    2.27    1.00
  WS02006248WS02006247 CONDUIT    413.45     0  05:30      1.16    0.90    1.00
  WS02006247WS02006245 CONDUIT    413.58     0  05:30      1.13    3.28    1.00
  WS02006245WS02006243 CONDUIT    413.35     0  05:30      1.17    1.22    1.00
  WS02006243WS02006242 CONDUIT    412.89     0  05:30      1.07    0.88    1.00
  WS02006242WS02006240 CONDUIT    412.80     0  05:30      1.07    1.64    1.00
  WS02006240WS02006239 CONDUIT    412.84     0  05:30      1.07    1.30    1.00
  WS02006239WS02006238 CONDUIT    413.43     0  05:30      1.07    1.32    1.00
  WS02006238WS02006235 CONDUIT    414.99     0  05:30      1.46    0.93    1.00
  WS02006235WS02006234 CONDUIT    523.41     0  06:10      1.36    5.52    1.00
  WS02006234WS02006232 CONDUIT    522.68     0  06:10      1.39    1.06    1.00
  WS02006232WS02006231 CONDUIT    522.58     0  06:10      1.36    1.10    1.00
  WS02006231WS02006230 CONDUIT    522.84     0  06:10      1.36    7.93    1.00
  WS02006230WS02006229 CONDUIT    534.19     0  06:10      1.39   11.89    1.00
  WS02006228WS02006109 CONDUIT    937.73     0  01:53      1.87    4.10    1.00
  WS02006116WS02004401 CONDUIT    970.82     0  01:53      1.24    1.34    1.00
  WS02006115WS02006116 CONDUIT    970.26     0  01:53      1.24    1.25    1.00
  WS02006113WS02006111 CONDUIT    938.97     0  01:53      2.63    1.13    1.00
  WS02006112WS02006115 CONDUIT    969.10     0  01:53      1.23    0.57    1.00
  WS02006111WS02006112 CONDUIT    939.39     0  01:53      1.87    0.45    1.00
  WS02006110WS02006113 CONDUIT    939.02     0  01:53      1.87    0.85    1.00
  WS02006109WS02006110 CONDUIT    939.19     0  01:53      1.87    1.81    1.00
  WS02004411WS02004412 CONDUIT    957.54     0  01:55      1.26    1.36    0.93
  WS02004401WS02004402 CONDUIT    970.86     0  01:53      1.24    1.17    1.00
  WS02004413WS02003067 CONDUIT    957.69     0  01:55      1.57    0.41    0.72
  WS02004412WS02004413 CONDUIT    957.70     0  01:55      1.24    0.64    0.96
  WS02004410WS02004411 CONDUIT    956.10     0  01:55      1.24    1.31    0.95
  WS02004409WS02004410 CONDUIT    958.88     0  01:54      1.24    1.24    0.97
  WS02004407WS02004409 CONDUIT    971.08     0  01:53      1.74    0.34    0.69
  WS02004406WS02004407 CONDUIT    973.16     0  01:53      1.65    0.43    0.70
  WS02004405WS02004406 CONDUIT    972.67     0  01:53      1.24    1.92    1.00
  WS02004404WS02004405 CONDUIT    973.48     0  01:53      1.24    9.54    1.00
  WS02004403WS02004404 CONDUIT    971.67     0  01:53      1.24    0.70    1.00
  WS02004402WS02004403 CONDUIT    971.31     0  01:53      1.24    1.40    1.00
  WS02004139WS02001211 CONDUIT    382.20     0  04:29      0.90    0.48    0.64
  WS02004138WS02004139 CONDUIT    396.19     0  00:00      3.65    0.08    0.47
  WS02003067WS02003066 CONDUIT    958.00     0  01:55      1.67    0.31    0.51
  WS02001213WS02003059 CONDUIT    397.11     0  04:30      0.88    0.66    0.88
  WS02001212WS02001213 CONDUIT    393.63     0  04:30      1.32    0.61    0.56
  WS02001211WS02001212 CONDUIT    391.61     0  04:29      0.78    0.30    0.72
  WS02003072WS02003073 CONDUIT   1345.01     0  02:01      1.97    2.91    0.58
  WS02003069WS02003072 CONDUIT   1344.61     0  02:01      1.82    0.65    0.62
  WS02003060WS02003069 CONDUIT   1344.24     0  02:00      2.03    0.53    0.57
  WS02003059WS02003060 CONDUIT    401.85     0  04:29      0.95    0.26    0.78
  HS02004901HS02004770 CONDUIT     36.83     0  01:52      0.10    0.14    0.54
  HS02004876HS02004881 CONDUIT    139.08     0  01:54      1.26    1.48    0.16
  HS02004870HS02004876 CONDUIT    112.62     0  01:54      0.85    0.07    0.19
  HS02004842HS02004848 CONDUIT     18.18     0  02:06      0.08    0.01    0.34
  HS02004837HS02004842 CONDUIT     18.64     0  02:06      0.42    0.01    0.35
  HS02004830HS02004837 CONDUIT     67.83     0  01:54      0.68    0.07    0.14
  HS02004824HS02004830 CONDUIT     68.06     0  01:56      0.62    0.09    0.18
  HS02004817HS02004824 CONDUIT    136.36     0  01:57      0.32    0.06    0.60
  HS02004770HS02004777 CONDUIT    189.68     0  01:52      0.49    0.35    0.55
  HS02004799HS02004480 CONDUIT    470.64     0  01:53      1.09    0.59    0.62
  HS02004792HS02004799 CONDUIT    430.88     0  01:53      1.22    0.26    0.50
  HS02004788HS02004792 CONDUIT    248.73     0  01:54      1.29    0.16    0.28
  HS02004785HS02004788 CONDUIT    189.53     0  01:53      0.92    1.43    0.30
  HS02004777HS02004785 CONDUIT    189.41     0  01:53      0.59    0.23    0.46
  HS02004480HS02004478 CONDUIT    554.37     0  01:53      1.59    2.33    0.50
  HS02004479HS02004480 CONDUIT     83.71     0  01:53      0.37    0.08    0.59
  HS02004862HS02004870 CONDUIT     86.18     0  01:55      0.82    0.09    0.15
  HS02004848HS02004852 CONDUIT     40.37     0  01:54      0.54    0.05    0.11
  HS02004856HS02004862 CONDUIT     60.18     0  01:54      0.61    0.06    0.14
  HS02004852HS02004856 CONDUIT     40.43     0  01:55      0.35    0.05    0.17
  HS02004802HS02004478 CONDUIT    184.69     0  01:57      0.53    0.16    0.50
  HS02004478WS02006287 CONDUIT    735.65     0  01:54      2.18    0.21    0.38
  HS02004817HS02004807 CONDUIT    137.17     0  01:57      0.26    0.08    0.77
  HS02004807HS02004802 CONDUIT    183.92     0  01:56      0.47    0.35    0.56
  YS02001759YS02001757 CONDUIT    877.98     0  01:57      1.12    0.62    1.00
  YS02001762YS02001759 CONDUIT    434.27     0  01:55      0.55    0.50    1.00
  YS02001765YS02001762 CONDUIT    433.79     0  01:55      0.55    0.41    1.00
  YS02001770YS02001767 CONDUIT    433.14     0  01:55      0.55    1.72    1.00
  YS02001774YS02001770 CONDUIT    668.15     0  03:01      0.85    0.43    1.00
  YS02001779YS02001774 CONDUIT    668.17     0  03:01      0.85    0.34    1.00
  YS02001649YS02001757 CONDUIT   1005.55     0  01:52      1.28    0.61    1.00
  YS02001767YS02001765 CONDUIT    434.46     0  01:55      0.55    0.55    1.00
  YS02006561YS02001783 CONDUIT    982.65     0  02:12      2.15    0.51    1.00
  YS02001783YS02001784 CONDUIT    982.74     0  02:16      1.96    1.35    1.00
  YS02001784YS02001785 CONDUIT    983.93     0  02:16      1.96    2.29    1.00
  YS02001788YS02001790 CONDUIT    983.65     0  02:12      2.44    0.72    1.00
  YS02001790YS02001791 CONDUIT    983.76     0  02:12      2.91    1.07    1.00
  YS02001791YS02001793 CONDUIT    984.43     0  02:12      5.76    0.42    1.00
  YS02001910YS02001907 CONDUIT    657.14     0  01:52      0.84    0.37    1.00
  YS02001786YS02001788 CONDUIT    983.63     0  02:12      2.31    1.90    1.00
  YS02001915YS02001910 CONDUIT    656.39     0  01:52      0.84    0.33    1.00
  YS02001918YS02001915 CONDUIT    375.64     0  01:52      0.48    0.21    1.00
  YS02001923YS02001920 CONDUIT    370.28     0  01:52      0.82    0.17    1.00
  YS02001926YS02001923 CONDUIT    307.67     0  01:51      0.92    0.44    1.00
  YS02001929YS02001926 CONDUIT    256.19     0  01:52      0.98    0.12    0.99
  YS02001920YS02001918 CONDUIT    373.87     0  01:52      0.77    0.36    1.00
  YS02001629YS02163301 CONDUIT    221.45     0  01:45      0.28    0.27    1.00
  YS02001619YS02001622 CONDUIT    389.10     0  02:16      0.74    0.57    1.00
  YS02001622YS02001625 CONDUIT    388.70     0  02:16      0.49    0.21    1.00
  YS02001625YS02001629 CONDUIT    220.10     0  01:48      0.29    0.10    1.00
  YS02163301YS02001633 CONDUIT    223.39     0  01:45      0.28    0.21    1.00
  YS02163601YS02164001 CONDUIT    456.25     0  01:48      0.58    0.40    1.00
  YS02164001YS02001641 CONDUIT    456.71     0  01:48      0.58    0.62    1.00
  YS02001641YS02001644 CONDUIT    456.75     0  01:48      0.58    1.48    1.00
  YS02001647YS02001649 CONDUIT    737.86     0  03:01      0.94    0.39    1.00
  YS02006553YS02006556 CONDUIT    715.98     0  03:35      0.91    0.61    1.00
  YS02006556YS02006558 CONDUIT    717.04     0  03:35      0.91    0.57    1.00
  YSB6556YSB1171       CONDUIT     46.62     0  01:54      0.14    0.05    0.84
  YS02001907YS02006553 CONDUIT    716.08     0  03:35      0.80    0.84    1.00
  YS02006558YS02006561 CONDUIT    982.88     0  02:16      3.48    2.17    1.00
  YS02001633YS02163601 CONDUIT    456.43     0  01:48      0.58    0.48    1.00
  YS02001644YS02001647 CONDUIT    737.88     0  03:01      0.94    0.43    1.00
  YS02001745YS02001748 CONDUIT    451.72     0  02:16      1.67    0.17    0.97
  YS02001748YS02001751 CONDUIT    452.09     0  02:16      1.21    0.23    1.00
  YS02001751YS02001754 CONDUIT    452.21     0  02:16      1.02    0.22    1.00
  YS02001754YS02001757 CONDUIT    451.82     0  02:16      0.58    0.18    1.00
  YS02001882YS02001884 CONDUIT     62.44     0  01:48      0.16    0.07    1.00
  YS02001884YS02001887 CONDUIT     70.51     0  01:47      0.12    0.09    1.00
  YS02001890YS02001895 CONDUIT    525.35     0  01:51      0.67    0.24    1.00
  YS02001895YS02001898 CONDUIT    526.56     0  01:51      0.67    0.91    1.00
  YS02001898YS02001901 CONDUIT    527.63     0  01:51      0.67    0.34    1.00
  YS02001901YS02001904 CONDUIT    528.28     0  01:51      0.67    0.82    1.00
  YS02001904YS02001907 CONDUIT    526.70     0  01:51      0.67    0.18    1.00
  YS02001887YS02001890 CONDUIT    677.58     0  02:12      0.86    1.16    1.00
  YS02001652YS02001649 CONDUIT    520.58     0  02:09      0.71    0.26    1.00
  YS02001655YS02001652 CONDUIT    519.49     0  02:12      1.09    0.25    1.00
  YS02001658YS02001655 CONDUIT    519.10     0  02:12      1.41    0.22    1.00
  YS02001661YS02001658 CONDUIT    518.94     0  02:12      1.78    0.20    1.00
  YS02001664YS02001661 CONDUIT    742.45     0  01:55      1.69    0.23    0.76
  YSB1154YSB6556       CONDUIT     46.63     0  01:52      0.15    0.08    0.75
  YSB1174YSB1171       CONDUIT     38.38     0  01:50      0.11    0.06    0.87
  YSB1171HS02004479    CONDUIT     83.75     0  01:53      0.54    0.06    0.70
  HS02004881HS02006253 CONDUIT    153.29     0  01:54      2.70    0.03    0.54
  YS02001793JiankangQianchi CONDUIT    984.18     0  02:12     16.51    0.08    1.00
  YS02001757CaochengTiaoxuchi CONDUIT   2149.16     0  01:55      3.55    0.94    1.00
  WSF200WS02003060     CONDUIT    958.57     0  01:55      1.98    0.21    0.45
  1                    CONDUIT   1347.48     0  02:02      3.60    0.47    0.48
  CC-Pump-1            PUMP       200.00     0  02:20              1.00
  CC-Pump-2            PUMP       200.00     0  02:20              1.00
  JK-Pump-1            PUMP       300.00     0  00:00              1.00
  JK-Pump-2            PUMP       683.00     0  00:00              1.00
  XR-Pump-1            PUMP        95.00     0  00:00              1.00
  XR-Pump-2            PUMP        95.00     0  00:00              1.00
  XR-Pump-3            PUMP        95.00     0  00:00              1.00
  XR-Pump-4            PUMP        95.00     0  00:00              1.00
  
  
  ***************************
  Flow Classification Summary
  ***************************
  
  -------------------------------------------------------------------------------------
                      Adjusted    ---------- Fraction of Time in Flow Class ---------- 
                       /Actual         Up    Down  Sub   Sup   Up    Down  Norm  Inlet 
  Conduit               Length    Dry  Dry   Dry   Crit  Crit  Crit  Crit  Ltd   Ctrl  
  -------------------------------------------------------------------------------------
  WS02003066WSF200        1.00   0.01  0.05  0.00  0.00  0.94  0.00  0.00  0.34  0.00
  WS02006287WS02006284    1.00   0.02  0.01  0.00  0.66  0.31  0.00  0.00  0.63  0.00
  WS02006284WS02006280    1.00   0.03  0.00  0.00  0.00  0.00  0.00  0.97  0.00  0.00
  WS02006280WS02006229    1.00   0.03  0.00  0.00  0.02  0.03  0.00  0.92  0.02  0.00
  WS02006229WS02006228    1.00   0.00  0.00  0.00  1.00  0.00  0.00  0.00  0.00  0.00
  WS02006256WS02006235    1.00   0.00  0.00  0.00  1.00  0.00  0.00  0.00  0.00  0.00
  WS02006253WS02006251    1.00   0.01  0.01  0.00  0.97  0.00  0.01  0.00  0.00  0.00
  WS02006252WS02006251    1.00   0.08  0.00  0.00  0.26  0.00  0.66  0.00  0.00  0.00
  WS02006251WS02006249    1.00   0.00  0.00  0.00  1.00  0.00  0.00  0.00  0.16  0.00
  WS02006249WS02006248    1.00   0.00  0.01  0.00  0.95  0.00  0.04  0.00  0.00  0.00
  WS02006248WS02006247    1.00   0.01  0.00  0.00  0.98  0.00  0.00  0.01  0.04  0.00
  WS02006247WS02006245    1.00   0.01  0.00  0.00  0.97  0.00  0.00  0.02  0.00  0.00
  WS02006245WS02006243    1.00   0.00  0.00  0.00  0.96  0.00  0.00  0.03  0.01  0.00
  WS02006243WS02006242    1.00   0.00  0.00  0.00  0.99  0.00  0.00  0.00  0.18  0.00
  WS02006242WS02006240    1.00   0.00  0.00  0.00  0.99  0.00  0.01  0.00  0.00  0.00
  WS02006240WS02006239    1.00   0.00  0.00  0.00  0.96  0.00  0.00  0.04  0.01  0.00
  WS02006239WS02006238    1.00   0.00  0.00  0.00  1.00  0.00  0.00  0.00  0.12  0.00
  WS02006238WS02006235    1.00   0.00  0.00  0.00  1.00  0.00  0.00  0.00  0.00  0.00
  WS02006235WS02006234    1.00   0.00  0.00  0.00  0.97  0.00  0.03  0.00  0.00  0.00
  WS02006234WS02006232    1.00   0.00  0.00  0.00  1.00  0.00  0.00  0.00  0.08  0.00
  WS02006232WS02006231    1.00   0.00  0.00  0.00  1.00  0.00  0.00  0.00  0.00  0.00
  WS02006231WS02006230    1.00   0.00  0.00  0.00  0.72  0.00  0.28  0.00  0.00  0.00
  WS02006230WS02006229    1.00   0.00  0.00  0.00  1.00  0.00  0.00  0.00  0.01  0.00
  WS02006228WS02006109    1.00   0.00  0.00  0.00  1.00  0.00  0.00  0.00  0.00  0.00
  WS02006116WS02004401    1.00   0.01  0.00  0.00  0.99  0.00  0.00  0.00  0.01  0.00
  WS02006115WS02006116    1.00   0.01  0.00  0.00  0.98  0.00  0.00  0.02  0.01  0.00
  WS02006113WS02006111    1.00   0.01  0.00  0.00  0.06  0.93  0.00  0.00  0.11  0.00
  WS02006112WS02006115    1.00   0.01  0.00  0.00  0.99  0.00  0.00  0.00  0.00  0.00
  WS02006111WS02006112    1.00   0.01  0.00  0.00  0.99  0.00  0.00  0.00  0.77  0.00
  WS02006110WS02006113    1.00   0.00  0.00  0.00  1.00  0.00  0.00  0.00  0.00  0.00
  WS02006109WS02006110    1.00   0.00  0.00  0.00  1.00  0.00  0.00  0.00  0.00  0.00
  WS02004411WS02004412    1.00   0.05  0.00  0.00  0.95  0.00  0.00  0.00  0.00  0.00
  WS02004401WS02004402    1.00   0.01  0.00  0.00  0.99  0.00  0.00  0.00  0.01  0.00
  WS02004413WS02003067    1.00   0.05  0.01  0.00  0.00  0.00  0.94  0.00  0.00  0.00
  WS02004412WS02004413    1.00   0.05  0.00  0.00  0.95  0.00  0.00  0.00  0.00  0.00
  WS02004410WS02004411    1.00   0.04  0.00  0.00  0.96  0.00  0.00  0.00  0.00  0.00
  WS02004409WS02004410    1.00   0.04  0.00  0.00  0.96  0.00  0.00  0.00  0.00  0.00
  WS02004407WS02004409    1.00   0.04  0.00  0.00  0.95  0.01  0.00  0.00  0.81  0.00
  WS02004406WS02004407    1.00   0.00  0.04  0.00  0.96  0.00  0.00  0.00  0.00  0.00
  WS02004405WS02004406    1.00   0.00  0.00  0.00  1.00  0.00  0.00  0.00  0.02  0.00
  WS02004404WS02004405    1.00   0.00  0.00  0.00  1.00  0.00  0.00  0.00  0.00  0.00
  WS02004403WS02004404    1.00   0.00  0.01  0.00  0.99  0.00  0.00  0.00  0.02  0.00
  WS02004402WS02004403    1.00   0.01  0.00  0.00  0.99  0.00  0.00  0.00  0.00  0.00
  WS02004139WS02001211    1.00   0.00  0.00  0.00  1.00  0.00  0.00  0.00  0.00  0.00
  WS02004138WS02004139    1.00   0.00  0.00  0.00  1.00  0.00  0.00  0.00  1.00  0.00
  WS02003067WS02003066    1.00   0.06  0.00  0.00  0.94  0.00  0.00  0.00  0.00  0.00
  WS02001213WS02003059    1.00   0.00  0.00  0.00  1.00  0.00  0.00  0.00  0.00  0.00
  WS02001212WS02001213    1.00   0.00  0.00  0.00  0.93  0.00  0.07  0.00  0.00  0.00
  WS02001211WS02001212    1.00   0.00  0.00  0.00  1.00  0.00  0.00  0.00  0.00  0.00
  WS02003072WS02003073    1.00   0.00  0.00  0.00  0.00  0.00  0.00  1.00  0.00  0.00
  WS02003069WS02003072    1.00   0.00  0.00  0.00  1.00  0.00  0.00  0.00  0.09  0.00
  WS02003060WS02003069    1.00   0.00  0.00  0.00  0.99  0.01  0.00  0.00  0.07  0.00
  WS02003059WS02003060    1.00   0.00  0.00  0.00  1.00  0.00  0.00  0.00  0.00  0.00
  HS02004901HS02004770    1.00   0.03  0.00  0.00  0.97  0.00  0.00  0.00  0.00  0.00
  HS02004876HS02004881    1.00   0.01  0.00  0.00  0.91  0.08  0.00  0.00  0.00  0.00
  HS02004870HS02004876    1.00   0.00  0.00  0.00  1.00  0.00  0.00  0.00  0.95  0.00
  HS02004842HS02004848    1.00   0.00  0.03  0.00  0.97  0.00  0.00  0.00  0.56  0.00
  HS02004837HS02004842    1.00   0.00  0.00  0.00  1.00  0.00  0.00  0.00  0.11  0.00
  HS02004830HS02004837    1.00   0.00  0.00  0.00  1.00  0.00  0.00  0.00  0.99  0.00
  HS02004824HS02004830    1.00   0.00  0.00  0.00  1.00  0.00  0.00  0.00  0.03  0.00
  HS02004817HS02004824    1.00   0.00  0.00  0.00  1.00  0.00  0.00  0.00  0.92  0.00
  HS02004770HS02004777    1.00   0.00  0.03  0.00  0.97  0.00  0.00  0.00  0.02  0.00
  HS02004799HS02004480    1.00   0.00  0.01  0.00  0.97  0.00  0.03  0.00  0.00  0.00
  HS02004792HS02004799    1.00   0.00  0.00  0.00  1.00  0.00  0.00  0.00  0.98  0.00
  HS02004788HS02004792    1.00   0.00  0.00  0.00  1.00  0.00  0.00  0.00  0.98  0.00
  HS02004785HS02004788    1.00   0.00  0.00  0.00  1.00  0.00  0.00  0.00  0.00  0.00
  HS02004777HS02004785    1.00   0.00  0.00  0.00  1.00  0.00  0.00  0.00  0.11  0.00
  HS02004480HS02004478    1.00   0.03  0.00  0.00  0.74  0.00  0.00  0.23  0.00  0.00
  HS02004479HS02004480    1.00   0.01  0.00  0.00  0.99  0.00  0.00  0.00  0.11  0.00
  HS02004862HS02004870    1.00   0.00  0.00  0.00  1.00  0.00  0.00  0.00  0.03  0.00
  HS02004848HS02004852    1.00   0.03  0.00  0.00  0.97  0.00  0.00  0.00  0.79  0.00
  HS02004856HS02004862    1.00   0.00  0.04  0.00  0.96  0.00  0.00  0.00  0.84  0.00
  HS02004852HS02004856    1.00   0.03  0.00  0.00  0.97  0.00  0.00  0.00  0.77  0.00
  HS02004802HS02004478    1.00   0.03  0.00  0.00  0.97  0.00  0.00  0.00  0.02  0.00
  HS02004478WS02006287    1.00   0.03  0.00  0.00  0.78  0.18  0.00  0.00  0.62  0.00
  HS02004817HS02004807    1.00   0.00  0.03  0.00  0.97  0.00  0.00  0.00  0.01  0.00
  HS02004807HS02004802    1.00   0.03  0.00  0.00  0.97  0.00  0.00  0.00  0.00  0.00
  YS02001759YS02001757    1.00   0.00  0.00  0.00  1.00  0.00  0.00  0.00  0.15  0.00
  YS02001762YS02001759    1.00   0.00  0.00  0.00  1.00  0.00  0.00  0.00  0.02  0.00
  YS02001765YS02001762    1.00   0.00  0.00  0.00  1.00  0.00  0.00  0.00  0.13  0.00
  YS02001770YS02001767    1.00   0.00  0.00  0.00  1.00  0.00  0.00  0.00  0.00  0.00
  YS02001774YS02001770    1.00   0.00  0.03  0.00  0.97  0.00  0.00  0.00  0.02  0.00
  YS02001779YS02001774    1.00   0.00  0.00  0.00  1.00  0.00  0.00  0.00  0.17  0.00
  YS02001649YS02001757    1.00   0.00  0.00  0.00  1.00  0.00  0.00  0.00  0.15  0.00
  YS02001767YS02001765    1.00   0.00  0.00  0.00  1.00  0.00  0.00  0.00  0.00  0.00
  YS02006561YS02001783    1.00   0.04  0.00  0.00  0.34  0.62  0.00  0.00  0.44  0.00
  YS02001783YS02001784    1.00   0.00  0.04  0.00  0.96  0.00  0.00  0.00  0.00  0.00
  YS02001784YS02001785    1.00   0.00  0.00  0.00  1.00  0.00  0.00  0.00  0.16  0.00
  YS02001788YS02001790    1.00   0.00  0.00  0.00  0.39  0.61  0.00  0.00  0.40  0.00
  YS02001790YS02001791    1.00   0.00  0.00  0.00  0.37  0.63  0.00  0.00  0.43  0.00
  YS02001791YS02001793    1.00   0.00  0.00  0.00  0.43  0.57  0.00  0.00  0.03  0.00
  YS02001910YS02001907    1.00   0.00  0.00  0.00  0.99  0.00  0.00  0.01  0.12  0.00
  YS02001786YS02001788    1.00   0.00  0.00  0.00  0.36  0.64  0.00  0.00  0.00  0.00
  YS02001915YS02001910    1.00   0.00  0.00  0.00  0.99  0.01  0.00  0.00  0.13  0.00
  YS02001918YS02001915    1.00   0.00  0.00  0.00  0.99  0.00  0.00  0.00  0.51  0.00
  YS02001923YS02001920    1.00   0.00  0.00  0.00  1.00  0.00  0.00  0.00  0.74  0.00
  YS02001926YS02001923    1.00   0.00  0.02  0.00  0.19  0.00  0.79  0.00  0.00  0.00
  YS02001929YS02001926    1.00   0.00  0.03  0.00  0.97  0.00  0.00  0.00  0.65  0.00
  YS02001920YS02001918    1.00   0.00  0.00  0.00  1.00  0.00  0.00  0.00  0.00  0.00
  YS02001629YS02163301    1.00   0.03  0.00  0.00  0.96  0.00  0.00  0.00  0.00  0.00
  YS02001619YS02001622    1.00   0.03  0.00  0.00  0.97  0.00  0.00  0.00  0.00  0.00
  YS02001622YS02001625    1.00   0.03  0.00  0.00  0.97  0.00  0.00  0.00  0.03  0.00
  YS02001625YS02001629    1.00   0.03  0.01  0.00  0.95  0.00  0.01  0.00  0.00  0.00
  YS02163301YS02001633    1.00   0.00  0.03  0.00  0.97  0.00  0.00  0.00  0.00  0.00
  YS02163601YS02164001    1.00   0.00  0.02  0.00  0.98  0.00  0.00  0.00  0.00  0.00
  YS02164001YS02001641    1.00   0.00  0.02  0.00  0.98  0.00  0.00  0.00  0.06  0.00
  YS02001641YS02001644    1.00   0.00  0.00  0.00  1.00  0.00  0.00  0.00  0.00  0.00
  YS02001647YS02001649    1.00   0.00  0.04  0.00  0.96  0.00  0.00  0.00  0.01  0.00
  YS02006553YS02006556    1.00   0.00  0.00  0.00  1.00  0.00  0.00  0.00  0.03  0.00
  YS02006556YS02006558    1.00   0.00  0.00  0.00  1.00  0.00  0.00  0.00  0.00  0.00
  YSB6556YSB1171          1.00   0.01  0.02  0.00  0.97  0.00  0.00  0.00  0.00  0.00
  YS02001907YS02006553    1.00   0.00  0.01  0.00  0.99  0.00  0.00  0.00  0.00  0.00
  YS02006558YS02006561    1.00   0.04  0.00  0.00  0.19  0.77  0.00  0.00  0.43  0.00
  YS02001633YS02163601    1.00   0.00  0.00  0.00  1.00  0.00  0.00  0.00  0.15  0.00
  YS02001644YS02001647    1.00   0.00  0.04  0.00  0.96  0.00  0.00  0.00  0.00  0.00
  YS02001745YS02001748    1.00   0.00  0.00  0.00  0.94  0.00  0.00  0.06  0.01  0.00
  YS02001748YS02001751    1.00   0.00  0.00  0.00  0.98  0.02  0.00  0.00  0.14  0.00
  YS02001751YS02001754    1.00   0.00  0.00  0.00  0.96  0.00  0.00  0.04  0.01  0.00
  YS02001754YS02001757    1.00   0.00  0.00  0.00  1.00  0.00  0.00  0.00  0.17  0.00
  YS02001882YS02001884    1.00   0.03  0.00  0.00  0.97  0.00  0.00  0.00  0.00  0.00
  YS02001884YS02001887    1.00   0.01  0.01  0.00  0.97  0.00  0.00  0.00  0.00  0.00
  YS02001890YS02001895    1.00   0.00  0.03  0.00  0.97  0.00  0.00  0.00  0.00  0.00
  YS02001895YS02001898    1.00   0.03  0.00  0.00  0.96  0.00  0.01  0.00  0.00  0.00
  YS02001898YS02001901    1.00   0.04  0.00  0.00  0.96  0.00  0.00  0.00  0.01  0.00
  YS02001901YS02001904    1.00   0.04  0.00  0.00  0.96  0.00  0.00  0.00  0.00  0.00
  YS02001904YS02001907    1.00   0.00  0.03  0.00  0.96  0.00  0.00  0.00  0.00  0.00
  YS02001887YS02001890    1.00   0.00  0.00  0.00  0.99  0.00  0.01  0.00  0.00  0.00
  YS02001652YS02001649    1.00   0.00  0.00  0.00  1.00  0.00  0.00  0.00  0.15  0.00
  YS02001655YS02001652    1.00   0.00  0.00  0.00  0.96  0.00  0.00  0.04  0.01  0.00
  YS02001658YS02001655    1.00   0.00  0.03  0.00  0.95  0.02  0.00  0.00  0.02  0.00
  YS02001661YS02001658    1.00   0.03  0.00  0.00  0.94  0.03  0.00  0.00  0.01  0.00
  YS02001664YS02001661    1.00   0.03  0.00  0.00  0.94  0.03  0.00  0.00  0.10  0.00
  YSB1154YSB6556          1.00   0.03  0.00  0.00  0.97  0.00  0.00  0.00  0.01  0.00
  YSB1174YSB1171          1.00   0.01  0.01  0.00  0.98  0.00  0.00  0.00  0.00  0.00
  YSB1171HS02004479       1.00   0.01  0.00  0.00  0.99  0.00  0.00  0.00  0.10  0.00
  HS02004881HS02006253    1.00   0.01  0.00  0.00  0.89  0.00  0.00  0.09  0.74  0.00
  YS02001793JiankangQianchi    1.00   0.00  0.00  0.00  0.73  0.27  0.00  0.00  0.35  0.00
  YS02001757CaochengTiaoxuchi    1.00   0.00  0.05  0.00  0.93  0.02  0.00  0.00  0.00  0.00
  WSF200WS02003060        1.00   0.00  0.01  0.00  0.98  0.02  0.00  0.00  0.30  0.00
  1                       1.00   0.00  0.00  0.00  0.00  1.00  0.00  0.00  0.58  0.00
  
  
  *************************
  Conduit Surcharge Summary
  *************************
  
  ----------------------------------------------------------------------------
                                                           Hours        Hours 
                         --------- Hours Full --------   Above Full   Capacity
  Conduit                Both Ends  Upstream  Dnstream   Normal Flow   Limited
  ----------------------------------------------------------------------------
  WS02006229WS02006228        4.35      4.39      4.35      5.39         4.35
  WS02006256WS02006235        6.27      6.27      6.80      4.42         0.01
  WS02006253WS02006251        3.28      3.28      3.35      0.01         0.02
  WS02006252WS02006251        2.59      2.59      4.12      3.08         0.01
  WS02006251WS02006249        3.30      3.30      3.39      2.01         1.75
  WS02006249WS02006248        3.32      3.32      3.39      5.14         0.01
  WS02006248WS02006247        3.38      3.38      3.65      0.01         0.01
  WS02006247WS02006245        3.64      3.70      3.64      5.40         3.38
  WS02006245WS02006243        3.69      3.70      3.89      0.36         0.28
  WS02006243WS02006242        3.94      3.94      4.14      0.01         0.01
  WS02006242WS02006240        4.07      4.07      4.34      3.41         0.01
  WS02006240WS02006239        4.08      4.09      4.12      1.30         0.84
  WS02006239WS02006238        4.20      4.21      4.22      1.54         0.98
  WS02006238WS02006235        4.20      4.20      4.27      0.01         0.03
  WS02006235WS02006234        4.10      4.10      4.19      6.12         0.02
  WS02006234WS02006232        4.14      4.14      4.31      1.38         1.35
  WS02006232WS02006231        3.41      3.41      4.31      1.74         0.01
[...]
  YS02001779YS02001774        6.13      6.13      6.19      0.01         0.01
  YS02001649YS02001757        6.19      6.19      6.23      0.01         0.01
  YS02001767YS02001765        6.18      6.18      6.18      0.01         0.01
  YS02006561YS02001783        1.69      1.69      1.93      0.01         0.01
  YS02001783YS02001784        1.91      1.93      1.91      2.12         1.89
  YS02001784YS02001785        1.85      1.91      1.85      2.90         1.85
  YS02001788YS02001790        1.80      1.80      2.32      0.01         0.01
  YS02001790YS02001791        2.31      2.32      2.41      1.81         1.79
  YS02001791YS02001793        2.41      2.41      2.89      0.01         0.01
  YS02001910YS02001907        1.93      1.93      2.39      0.01         0.01
  YS02001786YS02001788        1.80      1.85      1.80      2.53         1.80
  YS02001915YS02001910        1.79      1.79      1.93      0.01         0.01
  YS02001918YS02001915        1.65      1.65      1.79      0.01         0.01
  YS02001923YS02001920        1.50      1.50      1.67      0.01         0.01
  YS02001926YS02001923        0.01      0.01      0.01      0.01         0.01
  YS02001929YS02001926        0.01      0.01      0.01      0.01         0.01
  YS02001920YS02001918        1.65      1.65      1.67      0.01         0.01
  YS02001629YS02163301        6.16      6.16      6.17      0.01         0.01
  YS02001619YS02001622        6.09      6.09      6.10      0.01         0.03
  YS02001622YS02001625        6.10      6.10      6.15      0.01         0.01
  YS02001625YS02001629        6.08      6.08      6.15      0.01         0.01
  YS02163301YS02001633        6.17      6.17      6.18      0.01         0.01
  YS02163601YS02164001        6.17      6.17      6.20      0.01         0.01
  YS02164001YS02001641        6.17      6.17      6.18      0.01         0.02
  YS02001641YS02001644        6.18      6.18      6.18      2.38         2.35
  YS02001647YS02001649        6.15      6.15      6.19      0.01         0.01
  YS02006553YS02006556        2.10      2.10      2.45      0.01         0.01
  YS02006556YS02006558        2.20      2.20      2.49      0.01         0.01
  YSB6556YSB1171              0.01      0.01      0.30      0.01         0.01
  YS02001907YS02006553        2.93      2.93      3.12      0.01         0.01
  YS02006558YS02006561        1.78      2.07      1.78      2.77         1.78
  YS02001633YS02163601        6.17      6.17      6.20      0.01         0.01
  YS02001644YS02001647        6.15      6.15      6.18      0.01         0.01
  YS02001745YS02001748        0.01      0.01      6.04      0.01         0.01
  YS02001748YS02001751        6.05      6.05      6.08      0.01         0.01
  YS02001751YS02001754        6.08      6.08      6.14      0.01         0.01
  YS02001754YS02001757        6.15      6.15      6.23      0.01         0.01
  YS02001882YS02001884        1.80      1.80      1.81      0.01         0.01
  YS02001884YS02001887        1.85      1.85      1.87      0.01         0.01
  YS02001890YS02001895        1.78      1.78      1.94      0.01         0.01
  YS02001895YS02001898        1.77      1.77      1.78      0.01         0.01
  YS02001898YS02001901        1.79      1.79      1.85      0.01         0.01
  YS02001901YS02001904        1.83      1.83      1.85      0.01         0.01
  YS02001904YS02001907        1.83      1.83      2.46      0.01         0.01
  YS02001887YS02001890        1.89      1.89      1.91      0.52         0.01
  YS02001652YS02001649        6.15      6.15      6.19      0.01         0.01
  YS02001655YS02001652        6.10      6.10      6.15      0.01         0.01
  YS02001658YS02001655        6.05      6.05      6.10      0.01         0.01
  YS02001661YS02001658        0.13      0.13      6.05      0.01         0.01
  YS02001664YS02001661        0.01      0.01      1.84      0.01         0.01
  HS02004881HS02006253        0.01      0.01      2.42      0.01         0.01
  YS02001793JiankangQianchi        2.76      2.76      4.48      0.01         0.01
  YS02001757CaochengTiaoxuchi        5.75      5.75      6.23      0.01         0.01
  
  
  ***************
  Pumping Summary
  ***************
  
  ---------------------------------------------------------------------------------------------------------
                                                  Min       Avg       Max     Total     Power    % Time Off
                        Percent   Number of      Flow      Flow      Flow    Volume     Usage    Pump Curve
  Pump                 Utilized   Start-Ups       LPS       LPS       LPS  10^6 ltr     Kw-hr    Low   High
  ---------------------------------------------------------------------------------------------------------
  CC-Pump-1               72.34           1      0.00    187.21    200.00     3.780      4.39    0.0    0.0
  CC-Pump-2               57.44           7      0.00    104.24    200.00     2.040      2.83    0.0    0.0
  JK-Pump-1               61.70           4      0.00    242.18    300.00     4.061     53.71    0.0    0.0
  JK-Pump-2               59.57           4      0.00    470.46    683.00     7.683     92.85    0.0   97.5
  XR-Pump-1              100.00           1      0.00     93.81     95.00     2.622     21.70    0.0    0.0
  XR-Pump-2              100.00           1      0.00     93.38     95.00     2.565     20.44    0.0    0.0
  XR-Pump-3               95.75           3      0.00     93.18     95.00     2.451     18.06    0.0    0.0
  XR-Pump-4               95.75           3      0.00     93.18     95.00     2.451     18.06    0.0    0.0
  
  
  ***************************
  Link Pollutant Load Summary
  ***************************
  
  ------------------------------------------------------------------------------------------
                                 COD            SS            TN            TP         NH4-N
  Link                            kg            kg            kg            kg            kg
  ------------------------------------------------------------------------------------------
  WS02003066WSF200          1209.980      2327.179        28.522         2.353        14.632
  WS02006287WS02006284       438.124       854.622        12.587         1.181         6.763
  WS02006284WS02006280       438.630       855.438        12.635         1.187         6.793
  WS02006280WS02006229       438.641       855.503        12.633         1.187         6.792
  WS02006229WS02006228      1210.975      2328.093        28.060         2.281        14.319
  WS02006256WS02006235       228.692       432.588         4.769         0.357         2.371
  WS02006253WS02006251        85.960       172.461         1.844         0.136         0.908
  WS02006252WS02006251       581.458      1108.661        11.204         0.766         5.399
  WS02006251WS02006249       657.306      1261.970        12.861         0.890         6.219
  WS02006249WS02006248       556.910      1065.554        10.934         0.757         5.292
  WS02006248WS02006247       554.027      1059.464        10.881         0.753         5.267
  WS02006247WS02006245       554.245      1060.011        10.884         0.754         5.268
  WS02006245WS02006243       554.640      1061.012        10.888         0.754         5.270
  WS02006243WS02006242       555.493      1062.728        10.907         0.755         5.280
  WS02006242WS02006240       554.861      1061.430        10.898         0.755         5.276
  WS02006240WS02006239       554.457      1060.389        10.900         0.756         5.278
  WS02006239WS02006238       554.358      1059.771        10.917         0.758         5.290
  WS02006238WS02006235       553.753      1058.257        10.914         0.759         5.291
  WS02006235WS02006234       776.430      1480.106        15.520         1.101         7.575
  WS02006234WS02006232       775.718      1478.831        15.506         1.100         7.568
  WS02006232WS02006231       774.989      1477.474        15.492         1.099         7.561
  WS02006231WS02006230       774.542      1476.637        15.488         1.099         7.560
  WS02006230WS02006229       774.741      1477.080        15.504         1.102         7.570
  WS02006228WS02006109      1209.779      2325.953        28.026         2.278        14.302
  WS02006116WS02004401      1227.540      2359.205        28.933         2.385        14.840
  WS02006115WS02006116      1229.148      2362.124        28.975         2.388        14.862
  WS02006113WS02006111      1215.117      2334.026        28.749         2.371        14.761
  WS02006112WS02006115      1230.695      2364.921        29.022         2.393        14.888
  WS02006111WS02006112      1214.361      2332.563        28.730         2.370        14.752
  WS02006110WS02006113      1215.714      2335.025        28.768         2.373        14.772
  WS02006109WS02006110      1217.025      2337.306        28.812         2.377        14.796
  WS02004411WS02004412      1215.036      2336.350        28.678         2.368        14.717
  WS02004401WS02004402      1225.902      2356.250        28.884         2.381        14.814
  WS02004413WS02003067      1211.065      2329.177        28.547         2.355        14.645
  WS02004412WS02004413      1213.158      2332.935        28.627         2.363        14.690
  WS02004410WS02004411      1216.526      2339.061        28.717         2.371        14.737
  WS02004409WS02004410      1217.965      2341.676        28.757         2.375        14.759
  WS02004407WS02004409      1219.178      2343.874        28.786         2.377        14.774
  WS02004406WS02004407      1219.489      2344.421        28.789         2.377        14.775
  WS02004405WS02004406      1221.628      2348.217        28.872         2.385        14.821
  WS02004404WS02004405      1223.215      2351.171        28.884         2.384        14.824
  WS02004403WS02004404      1222.994      2350.998        28.802         2.373        14.770
  WS02004402WS02004403      1224.379      2353.501        28.843         2.377        14.793
  WS02004139WS02001211      1354.859      2296.575       101.560        12.250        62.179
  WS02004138WS02004139      1361.023      2306.975       102.018        12.305        62.459
  WS02003067WS02003066      1210.221      2327.623        28.529         2.354        14.636
  WS02001213WS02003059      1388.418      2349.105       105.071        12.693        64.387
  WS02001212WS02001213      1397.714      2364.614       105.808        12.783        64.840
  WS02001211WS02001212      1399.388      2367.374       105.947        12.800        64.926
  WS02003072WS02003073      2697.972      4833.828       143.656        16.312        85.329
  WS02003069WS02003072      2702.659      4841.746       143.988        16.352        85.532
  WS02003060WS02003069      2705.881      4847.414       144.150        16.370        85.628
  WS02003059WS02003060      1385.675      2344.369       104.894        12.672        64.281
  HS02004901HS02004770        19.398        38.441         0.369         0.028         0.174
  HS02004876HS02004881        64.844       131.161         1.382         0.100         0.674
  HS02004870HS02004876        49.303        99.622         1.094         0.080         0.537
  HS02004842HS02004848         9.278        18.137         0.191         0.013         0.089
  HS02004837HS02004842        13.926        25.526         0.662         0.072         0.384
  HS02004830HS02004837        81.309       145.734         4.858         0.568         2.931
  HS02004824HS02004830        82.103       147.040         4.931         0.577         2.976
  HS02004817HS02004824       118.567       221.813         5.667         0.624         3.333
  HS02004770HS02004777        73.686       147.828         1.507         0.104         0.700
  HS02004799HS02004480       235.095       460.666         5.679         0.484         2.882
  HS02004792HS02004799       214.152       417.353         5.330         0.464         2.722
  HS02004788HS02004792       116.320       227.353         3.333         0.303         1.755
  HS02004785HS02004788        75.105       150.099         1.654         0.123         0.793
  HS02004777HS02004785        74.434       149.023         1.592         0.115         0.755
  HS02004480HS02004478       294.442       579.968         6.704         0.559         3.370
  HS02004479HS02004480        62.983       125.170         1.335         0.113         0.681
  HS02004862HS02004870        37.533        74.852         0.862         0.066         0.425
  HS02004848HS02004852        15.822        31.382         0.320         0.022         0.149
  HS02004856HS02004862        25.852        52.200         0.514         0.035         0.243
  HS02004852HS02004856        15.836        31.405         0.320         0.022         0.149
  HS02004802HS02004478       144.600       276.123         5.948         0.629         3.432
  HS02004478WS02006287       438.268       854.825        12.603         1.183         6.773
  HS02004817HS02004807       117.204       219.662         5.526         0.607         3.245
  HS02004807HS02004802       144.762       276.367         5.979         0.633         3.453
  YS02001759YS02001757       484.881       917.290         9.470         0.663         4.616
  YS02001762YS02001759       199.064       374.743         4.128         0.292         2.036
  YS02001765YS02001762       199.695       376.823         4.157         0.295         2.053
  YS02001770YS02001767       201.311       382.586         4.012         0.271         1.951
  YS02001774YS02001770       404.927       796.780         7.804         0.521         3.773
  YS02001779YS02001774       404.091       795.196         7.868         0.531         3.819
  YS02001649YS02001757       387.688       719.171         7.679         0.535         3.690
  YS02001767YS02001765       200.998       380.194         4.194         0.298         2.073
  YS02006561YS02001783      1263.203      2384.824        26.079         1.927        12.911
  YS02001783YS02001784      1263.092      2384.654        26.074         1.927        12.908
  YS02001784YS02001785      1270.408      2396.382        26.786         2.016        13.354
  YS02001788YS02001790      1270.661      2396.806        26.845         2.024        13.392
  YS02001790YS02001791      1271.112      2397.551        26.923         2.035        13.443
  YS02001791YS02001793      1270.486      2396.554        26.897         2.032        13.428
  YS02001910YS02001907       566.076      1068.758        12.830         0.951         6.485
  YS02001786YS02001788      1270.505      2396.543        26.811         2.020        13.370
  YS02001915YS02001910       565.842      1068.283        12.784         0.944         6.455
  YS02001918YS02001915       279.426       506.659         6.966         0.602         3.668
  YS02001923YS02001920       254.298       463.755         4.943         0.357         2.419
  YS02001926YS02001923       251.224       458.227         4.824         0.345         2.351
  YS02001929YS02001926       248.423       453.345         4.694         0.330         2.275
  YS02001920YS02001918       275.377       498.156         6.876         0.596         3.623
  YS02001629YS02163301        89.578       159.125         1.892         0.124         0.887
  YS02001619YS02001622       259.387       485.249         5.243         0.348         2.461
  YS02001622YS02001625       258.420       483.729         5.219         0.346         2.450
  YS02001625YS02001629        86.644       153.298         1.847         0.120         0.864
  YS02163301YS02001633        94.419       168.622         1.969         0.131         0.926
  YS02163601YS02164001       529.000       976.457        10.164         0.735         4.886
  YS02164001YS02001641       528.907       976.288        10.152         0.733         4.878
  YS02001641YS02001644       529.936       978.012        10.164         0.734         4.883
  YS02001647YS02001649       537.481      1006.091        10.601         0.744         5.058
  YS02006553YS02006556       782.237      1457.840        16.647         1.262         8.342
  YS02006556YS02006558       782.349      1458.048        16.612         1.257         8.318
  YSB6556YSB1171              36.521        72.734         0.718         0.058         0.359
  YS02001907YS02006553       782.258      1457.885        16.676         1.266         8.361
  YS02006558YS02006561      1263.165      2384.738        26.078         1.927        12.910
  YS02001633YS02163601       529.605       977.412        10.141         0.730         4.868
  YS02001644YS02001647       545.421      1021.098        10.736         0.754         5.122
  YS02001745YS02001748       354.089       679.995         6.989         0.437         3.358
  YS02001748YS02001751       353.403       678.830         6.997         0.440         3.366
  YS02001751YS02001754       352.495       677.342         6.982         0.440         3.360
  YS02001754YS02001757       353.341       678.617         7.149         0.462         3.468
  YS02001882YS02001884         4.180         7.427         0.080         0.006         0.039
  YS02001884YS02001887         7.424        13.405         0.140         0.011         0.069
  YS02001890YS02001895       614.651      1175.182        11.359         0.858         5.542
  YS02001895YS02001898       614.523      1175.045        11.353         0.858         5.539
  YS02001898YS02001901       614.318      1174.662        11.348         0.857         5.537
  YS02001901YS02001904       614.182      1174.491        11.357         0.859         5.543
  YS02001904YS02001907       614.501      1174.959        11.415         0.866         5.580
  YS02001887YS02001890       669.180      1284.234        12.354         0.936         6.031
  YS02001652YS02001649       306.423       582.815         6.073         0.440         2.855
  YS02001655YS02001652       307.157       583.994         6.093         0.441         2.864
  YS02001658YS02001655       306.944       583.652         6.013         0.430         2.811
  YS02001661YS02001658       307.803       585.044         6.034         0.431         2.821
  YS02001664YS02001661       323.864       611.244         6.406         0.457         2.991
  YSB1154YSB6556              36.100        72.068         0.671         0.053         0.330
  YSB1174YSB1171              24.948        50.014         0.489         0.039         0.242
  YSB1171HS02004479           62.904       125.022         1.341         0.114         0.684
  HS02004881HS02006253        73.436       149.115         1.531         0.109         0.744
  YS02001793JiankangQianchi      1270.741      2397.011        26.908         2.033        13.434
  YS02001757CaochengTiaoxuchi       837.734      1575.445        16.506         1.130         7.976
  WSF200WS02003060          1209.766      2326.767        28.530         2.355        14.638
  1                         2701.056      4837.819       144.228        16.388        85.699
  CC-Pump-1                  375.042       714.467         7.239         0.495         3.489
  CC-Pump-2                  206.183       393.692         3.961         0.271         1.908
  JK-Pump-1                  346.563       662.089         7.063         0.524         3.493
  JK-Pump-2                  746.786      1430.520        15.025         1.102         7.400
  XR-Pump-1                  361.794       611.286        27.547         3.331        16.890
  XR-Pump-2                  348.145       589.447        26.236         3.167        16.071
  XR-Pump-3                  327.427       556.257        24.269         2.922        14.843
  XR-Pump-4                  327.427       556.257        24.269         2.922        14.843
  

  Analysis begun on:  Sun Jun 13 15:49:24 2021
  Analysis ended on:  Sun Jun 13 15:49:28 2021
  Total elapsed time: 00:00:04