
  EPA STORM WATER MANAGEMENT MODEL - VERSION 5.1 (Build 5.3.0.dev0)
  --------------------------------------------------------------

  WARNING 09: time series interval greater than recording interval for Rain Gage RG1
  WARNING 09: time series interval greater than recording interval for Rain Gage RG2
  WARNING 09: time series interval greater than recording interval for Rain Gage RG3
  WARNING 09: time series interval greater than recording interval for Rain Gage RG4
  
  *********************************************************
  NOTE: The summary statistics displayed in this report are
  based on results found at every computational time step,  
  not just on results from each reporting time step.
  *********************************************************
  
  ****************
  Analysis Options
  ****************
  Flow Units ............... CMS
  Process Models:
    Rainfall/Runoff ........ YES
    RDII ................... NO
    Snowmelt ............... NO
    Groundwater ............ NO
    Flow Routing ........... YES
    Ponding Allowed ........ YES
    Water Quality .......... NO
  Infiltration Method ...... HORTON
  Flow Routing Method ...... DYNWAVE
  Surcharge Method ......... EXTRAN
  Starting Date ............ 08/28/2015 00:00:00
  Ending Date .............. 08/28/2015 23:40:00
  Antecedent Dry Days ...... 0.0
  Report Time Step ......... 00:01:00
  Wet Time Step ............ 00:01:00
  Dry Time Step ............ 00:01:00
  Routing Time Step ........ 5.00 sec
  Variable Time Step ....... YES
  Maximum Trials ........... 8
  Number of Threads ........ 1
  Head Tolerance ........... 0.001500 m
  
  
  **************************        Volume         Depth
  Runoff Quantity Continuity     hectare-m            mm
  **************************     ---------       -------
  Total Precipitation ......         2.012        11.167
  Evaporation Loss .........         0.000         0.000
  Infiltration Loss ........         0.000         0.000
  Surface Runoff ...........         1.961        10.884
  Final Storage ............         0.053         0.294
  Continuity Error (%) .....        -0.096
  
  
  **************************        Volume        Volume
  Flow Routing Continuity        hectare-m      10^6 ltr
  **************************     ---------     ---------
  Dry Weather Inflow .......         0.758         7.576
  Wet Weather Inflow .......         1.961        19.611
  Groundwater Inflow .......         0.000         0.000
  RDII Inflow ..............         0.000         0.000
  External Inflow ..........         0.000         0.000
  External Outflow .........         1.683        16.827
  Flooding Loss ............         0.377         3.773
  Evaporation Loss .........         0.000         0.000
  Exfiltration Loss ........         0.000         0.000
  Initial Stored Volume ....         0.000         0.000
  Final Stored Volume ......         0.549         5.486
  Continuity Error (%) .....         4.046
  
  
  *************************
  Highest Continuity Errors
  *************************
  Node T2 (17.12%)
  Node T5 (16.74%)
  Node T3 (9.16%)
  Node T4 (6.79%)
  Node T6 (4.78%)
  
  
  ***************************
  Time-Step Critical Elements
  ***************************
  None
  
  
  ********************************
  Highest Flow Instability Indexes
  ********************************
  Link C13 (1)
  
  
  *************************
  Routing Time Step Summary
  *************************
  Minimum Time Step           :     4.50 sec
  Average Time Step           :     5.00 sec
  Maximum Time Step           :     5.00 sec
  Percent in Steady State     :     0.00
  Average Iterations per Step :     2.15
  Percent Not Converging      :     0.85
  
  
  ***************************
  Subcatchment Runoff Summary
  ***************************
  
  ------------------------------------------------------------------------------------------------------------------------------
                            Total      Total      Total      Total     Imperv       Perv      Total       Total     Peak  Runoff
                           Precip      Runon       Evap      Infil     Runoff     Runoff     Runoff      Runoff   Runoff   Coeff
  Subcatchment                 mm         mm         mm         mm         mm         mm         mm    10^6 ltr      CMS
  ------------------------------------------------------------------------------------------------------------------------------
  SC01                      12.20       0.00       0.00       0.00      12.01       0.00      12.01        3.96     0.61   0.984
  SC02                       9.68       0.00       0.00       0.00       9.48       0.00       9.48        2.16     0.41   0.980
  SC03                      11.18       0.00       0.00       0.00      10.96       0.00      10.96        1.97     0.44   0.981
  SC04                       9.68       0.00       0.00       0.00       9.36       0.00       9.36        0.65     0.10   0.967
  SC05                      12.20       0.00       0.00       0.00      12.00       0.00      12.00        1.87     0.28   0.983
  SC06                      10.87       0.00       0.00       0.00      10.42       0.00      10.42        3.39     0.42   0.959
  SC07                       9.68       0.00       0.00       0.00       9.36       0.00       9.36        0.44     0.07   0.967
  SC08                      11.18       0.00       0.00       0.00      10.84       0.00      10.84        3.03     0.55   0.969
  SC09                      10.87       0.00       0.00       0.00      10.53       0.00      10.53        0.73     0.10   0.969
  SC010                     12.20       0.00       0.00       0.00      11.95       0.00      11.95        1.40     0.19   0.980
  
  
  ******************
  Node Depth Summary
  ******************
  
  ---------------------------------------------------------------------------------
                                 Average  Maximum  Maximum  Time of Max    Reported
                                   Depth    Depth      HGL   Occurrence   Max Depth
  Node                 Type       Meters   Meters   Meters  days hr:min      Meters
  ---------------------------------------------------------------------------------
  J1                   JUNCTION     0.06     0.17    34.17     0  04:21        0.17
  J3                   JUNCTION     0.10     0.12    18.12     0  08:01        0.12
  CSO7                 JUNCTION     0.08     1.20    35.20     0  04:32        1.20
  J5                   JUNCTION     0.05     0.14    32.14     0  04:37        0.14
  CSO9                 JUNCTION     0.09     1.27    41.27     0  04:31        1.25
  J8                   JUNCTION     0.08     0.23    36.23     0  04:47        0.23
  CSO8                 JUNCTION     0.12     2.00    34.00     0  03:56        2.00
  J10                  JUNCTION     0.07     0.27    29.27     0  04:27        0.27
  J13                  JUNCTION     0.05     0.17    29.17     0  04:27        0.17
  J15                  JUNCTION     0.15     0.30    15.30     0  04:43        0.30
  J16                  JUNCTION     0.06     0.18    30.18     0  04:21        0.18
  CSO10                JUNCTION     0.10     0.86    30.86     0  04:41        0.70
  J12                  JUNCTION     0.25     0.48    26.48     0  13:01        0.48
  J4                   JUNCTION     0.09     1.13    34.13     0  04:32        0.78
  J6                   JUNCTION     0.06     0.07    25.07     0  07:55        0.07
  J2                   JUNCTION     0.00     0.00    25.00     0  00:00        0.00
  J19                  JUNCTION     0.14     0.17     8.17     0  04:45        0.17
  J9                   JUNCTION     0.09     0.11    29.11     0  06:05        0.11
  J14                  JUNCTION     0.13     0.15    20.15     0  13:06        0.15
  J17                  JUNCTION     0.06     0.07    20.07     0  08:00        0.07
  J7                   JUNCTION     0.06     0.19    39.19     0  04:37        0.19
  J11                  JUNCTION     0.07     0.29    31.29     0  04:28        0.29
  J18                  JUNCTION     0.05     0.15    29.15     0  04:38        0.15
  Out_to_WWTP          OUTFALL      0.14     0.17     6.17     0  06:25        0.17
  T5                   STORAGE      4.23     5.00    32.00     0  04:46        5.00
  T4                   STORAGE      2.67     4.29    31.29     0  07:53        4.29
  T6                   STORAGE      3.27     5.00    36.00     0  04:44        5.00
  T3                   STORAGE      3.46     4.49    26.49     0  13:05        4.49
  T2                   STORAGE      2.98     4.28    25.28     0  07:58        4.28
  T1                   STORAGE      3.02     5.00    15.00     0  04:43        5.00
  
  
  *******************
  Node Inflow Summary
  *******************
  
  -------------------------------------------------------------------------------------------------
                                  Maximum  Maximum                  Lateral       Total        Flow
                                  Lateral    Total  Time of Max      Inflow      Inflow     Balance
                                   Inflow   Inflow   Occurrence      Volume      Volume       Error
  Node                 Type           CMS      CMS  days hr:min    10^6 ltr    10^6 ltr     Percent
  -------------------------------------------------------------------------------------------------
  J1                   JUNCTION     0.286    0.286     0  04:21        2.96        2.96      -0.005
  J3                   JUNCTION     0.000    0.142     0  08:00           0        9.68       0.293
  CSO7                 JUNCTION     0.074    0.074     0  04:31        1.01        1.01       0.026
  J5                   JUNCTION     0.103    0.172     0  04:36       0.894         1.9       0.038
  CSO9                 JUNCTION     0.103    0.103     0  04:36        1.11        1.11       0.016
  J8                   JUNCTION     0.430    0.520     0  04:46        5.22        6.33       0.065
  CSO8                 JUNCTION     0.554    0.554     0  04:26        3.48        3.48      -0.009
  J10                  JUNCTION     0.443    0.869     0  04:26        2.72        6.19       0.062
  J13                  JUNCTION     0.417    0.417     0  04:26        3.07        3.07      -0.107
  J15                  JUNCTION     0.000    0.845     0  04:42           0        18.4       0.358
  J16                  JUNCTION     0.618    0.618     0  04:21        5.04        5.04      -0.024
  CSO10                JUNCTION     0.196    0.196     0  04:41        1.67        1.67       0.016
  J12                  JUNCTION     0.000    0.878     0  04:27           0        10.9       0.187
  J4                   JUNCTION     0.000    0.074     0  04:31           0        1.01       0.152
  J6                   JUNCTION     0.000    0.026     0  07:53           0         1.6       0.163
  J2                   JUNCTION     0.000    0.000     0  00:00           0           0       0.000 ltr
  J19                  JUNCTION     0.000    0.271     0  04:44           0        16.8       0.057
  J9                   JUNCTION     0.000    0.075     0  04:44           0        4.76       0.279
  J14                  JUNCTION     0.000    0.117     0  13:06           0        8.09       0.077
  J17                  JUNCTION     0.000    0.031     0  07:58           0        2.02       0.300
  J7                   JUNCTION     0.000    0.103     0  04:36           0        1.11       0.227
  J11                  JUNCTION     0.000    0.485     0  04:27           0        3.47       0.250
  J18                  JUNCTION     0.000    0.181     0  04:42           0        1.67       0.061
  Out_to_WWTP          OUTFALL      0.000    0.271     0  04:45           0        16.8       0.000
  T5                   STORAGE      0.000    0.263     0  04:22           0        2.96      20.112
  T4                   STORAGE      0.000    0.165     0  04:37           0         1.9       7.283
  T6                   STORAGE      0.000    0.499     0  04:47           0        6.33       5.018
  T3                   STORAGE      0.000    0.854     0  04:29           0        10.9      10.086
  T2                   STORAGE      0.000    0.382     0  04:27           0        3.07      20.663
  T1                   STORAGE      0.000    0.799     0  04:43           0        18.3       2.299
  
  
  **********************
  Node Surcharge Summary
  **********************
  
  Surcharging occurs when water rises above the top of the highest conduit.
  ---------------------------------------------------------------------
                                               Max. Height   Min. Depth
                                   Hours       Above Crown    Below Rim
  Node                 Type      Surcharged         Meters       Meters
  ---------------------------------------------------------------------
  CSO7                 JUNCTION        0.39          0.945        0.000
  CSO9                 JUNCTION        0.47          0.951        0.731
  CSO8                 JUNCTION        0.91          1.547        0.000
  CSO10                JUNCTION        0.04          0.420        0.140
  J4                   JUNCTION        0.35          0.826        0.874
  
  
  *********************
  Node Flooding Summary
  *********************
  
  Flooding refers to all water that overflows a node, whether it ponds or not.
  --------------------------------------------------------------------------
                                                             Total   Maximum
                                 Maximum   Time of Max       Flood    Ponded
                        Hours       Rate    Occurrence      Volume     Depth
  Node                 Flooded       CMS   days hr:min    10^6 ltr    Meters
  --------------------------------------------------------------------------
  CSO7                    0.03     0.003      0  04:36       0.000     0.000
  CSO8                    0.08     0.071      0  04:26       0.009     0.000
  T5                     18.90     0.232      0  04:46       1.968     0.000
  T6                      3.22     0.424      0  04:47       1.063     0.000
  T1                      1.27     0.528      0  04:43       0.732     0.000
  
  
  **********************
  Storage Volume Summary
  **********************
  
  --------------------------------------------------------------------------------------------------
                         Average     Avg  Evap Exfil       Maximum     Max    Time of Max    Maximum
                          Volume    Pcnt  Pcnt  Pcnt        Volume    Pcnt     Occurrence    Outflow
  Storage Unit           1000 m3    Full  Loss  Loss       1000 m3    Full    days hr:min        CMS
  --------------------------------------------------------------------------------------------------
  T5                       0.423      85     0     0         0.500     100       0  04:46      0.000
  T4                       0.267      53     0     0         0.429      86       0  07:53      0.026
  T6                       0.392      65     0     0         0.600     100       0  04:44      0.075
  T3                       1.802      69     0     0         2.333      90       0  13:05      0.117
  T2                       0.597      60     0     0         0.855      86       0  07:58      0.031
  T1                       0.423      60     0     0         0.700     100       0  04:43      0.271
  
  
  ***********************
  Outfall Loading Summary
  ***********************
  
  -----------------------------------------------------------
                         Flow       Avg       Max       Total
                         Freq      Flow      Flow      Volume
  Outfall Node           Pcnt       CMS       CMS    10^6 ltr
  -----------------------------------------------------------
  Out_to_WWTP           99.43     0.199     0.271      16.827
  -----------------------------------------------------------
  System                99.43     0.199     0.271      16.827
  
  
  ********************
  Link Flow Summary
  ********************
  
  -----------------------------------------------------------------------------
                                 Maximum  Time of Max   Maximum    Max/    Max/
                                  |Flow|   Occurrence   |Veloc|    Full    Full
  Link                 Type          CMS  days hr:min     m/sec    Flow   Depth
  -----------------------------------------------------------------------------
  C1                   CONDUIT     0.000     0  00:00      0.00    0.00    0.06
  C6                   CONDUIT     0.070     0  04:36      1.28    1.12    0.73
  C2                   CONDUIT     0.026     0  07:55      0.90    0.03    0.16
  C9                   CONDUIT     0.094     0  04:37      1.18    0.32    0.42
  C16                  CONDUIT     0.473     0  04:28      1.75    0.05    0.14
  C3                   CONDUIT     0.117     0  13:06      1.86    0.05    0.13
  C19                  CONDUIT     0.031     0  08:00      0.62    0.01    0.18
  C11                  CONDUIT     0.142     0  08:01      1.53    0.01    0.10
  C20                  CONDUIT     0.568     0  04:21      2.78    0.02    0.12
  C22                  CONDUIT     0.172     0  04:38      1.49    0.08    0.28
  C12                  CONDUIT     0.075     0  06:05      0.98    0.01    0.15
  C17                  CONDUIT     0.816     0  04:27      2.95    0.04    0.14
  C10                  CONDUIT     0.499     0  04:47      0.93    0.05    0.58
  C13                  CONDUIT     0.854     0  04:29      1.10    0.05    0.62
  C18                  CONDUIT     0.382     0  04:27      1.01    0.01    0.54
  C23                  CONDUIT     0.799     0  04:43      1.25    0.09    0.60
  C4                   CONDUIT     0.263     0  04:22      1.12    0.06    0.59
  C7                   CONDUIT     0.165     0  04:37      0.80    0.04    0.57
  C14                  CONDUIT     0.271     0  04:45      2.08    0.02    0.09
  C5                   CONDUIT     0.074     0  04:31      1.44    1.26    1.00
  C8                   CONDUIT     0.103     0  04:36      1.53    1.30    0.81
  C15                  CONDUIT     0.485     0  04:27      3.50    1.54    0.82
  C21                  CONDUIT     0.181     0  04:42      1.78    1.04    0.67
  V4                   ORIFICE     0.026     0  07:53                      0.35
  V5                   ORIFICE     0.000     0  00:00                      0.00
  V1                   ORIFICE     0.271     0  04:44                      1.00
  V6                   ORIFICE     0.075     0  04:44                      0.43
  V3                   ORIFICE     0.117     0  13:06                      0.65
  V2                   ORIFICE     0.031     0  07:58                      0.24
  
  
  ***************************
  Flow Classification Summary
  ***************************
  
  -------------------------------------------------------------------------------------
                      Adjusted    ---------- Fraction of Time in Flow Class ---------- 
                       /Actual         Up    Down  Sub   Sup   Up    Down  Norm  Inlet 
  Conduit               Length    Dry  Dry   Dry   Crit  Crit  Crit  Crit  Ltd   Ctrl  
  -------------------------------------------------------------------------------------
  C1                      1.00   0.12  0.88  0.00  0.00  0.00  0.00  0.00  0.00  0.00
  C6                      1.00   0.00  0.00  0.00  0.03  0.97  0.00  0.00  0.00  0.00
  C2                      1.00   0.12  0.00  0.00  0.26  0.62  0.00  0.00  0.87  0.00
  C9                      1.00   0.00  0.00  0.00  1.00  0.00  0.00  0.00  1.00  0.00
  C16                     1.00   0.00  0.05  0.00  0.60  0.35  0.00  0.00  0.37  0.00
  C3                      1.00   0.12  0.00  0.00  0.00  0.88  0.00  0.00  0.00  0.00
  C19                     1.00   0.00  0.12  0.00  0.88  0.00  0.00  0.00  0.88  0.00
  C11                     1.00   0.00  0.12  0.00  0.07  0.81  0.00  0.00  0.88  0.00
  C20                     1.00   0.00  0.00  0.00  0.70  0.30  0.00  0.00  0.99  0.00
  C22                     1.00   0.00  0.00  0.00  0.88  0.12  0.00  0.00  1.00  0.00
  C12                     1.00   0.00  0.12  0.00  0.65  0.23  0.00  0.00  0.88  0.00
  C17                     1.00   0.00  0.00  0.00  0.66  0.34  0.00  0.00  0.95  0.00
  C10                     1.00   0.00  0.00  0.00  0.98  0.02  0.00  0.00  0.98  0.00
  C13                     1.00   0.00  0.00  0.00  0.91  0.09  0.00  0.00  0.34  0.00
  C18                     1.00   0.00  0.00  0.00  0.96  0.04  0.00  0.00  0.98  0.00
  C23                     1.00   0.00  0.00  0.00  0.92  0.08  0.00  0.00  0.93  0.00
  C4                      1.00   0.00  0.00  0.00  0.98  0.02  0.00  0.00  0.99  0.00
  C7                      1.00   0.00  0.00  0.00  0.97  0.03  0.00  0.00  0.98  0.00
  C14                     1.00   0.00  0.00  0.00  0.00  1.00  0.00  0.00  0.48  0.00
  C5                      1.00   0.00  0.00  0.00  0.91  0.09  0.00  0.00  0.96  0.00
  C8                      1.00   0.00  0.00  0.00  0.08  0.92  0.00  0.00  0.00  0.00
  C15                     1.00   0.05  0.00  0.00  0.02  0.94  0.00  0.00  0.02  0.00
  C21                     1.00   0.00  0.00  0.00  0.00  1.00  0.00  0.00  0.00  0.00
  
  
  *************************
  Conduit Surcharge Summary
  *************************
  
  ----------------------------------------------------------------------------
                                                           Hours        Hours 
                         --------- Hours Full --------   Above Full   Capacity
  Conduit                Both Ends  Upstream  Dnstream   Normal Flow   Limited
  ----------------------------------------------------------------------------
  C6                          0.01      0.35      0.01      0.17         0.01
  C10                         0.01      0.01     20.93      0.01         0.01
  C13                         0.01      0.01     19.29      0.01         0.01
  C18                         0.01      0.01     19.28      0.01         0.01
  C23                         0.01      0.01     19.94      0.01         0.01
  C4                          0.01      0.01     21.11      0.01         0.01
  C7                          0.01      0.01     19.57      0.01         0.01
  C5                          0.38      0.39      0.51      0.47         0.36
  C8                          0.01      0.47      0.01      0.47         0.01
  C15                         0.01      0.91      0.01      0.97         0.01
  C21                         0.01      0.05      0.01      0.09         0.01
  

  Analysis begun on:  Tue Sep 21 09:08:17 2021
  Analysis ended on:  Tue Sep 21 09:08:17 2021
  Total elapsed time: < 1 sec