
  EPA STORM WATER MANAGEMENT MODEL - VERSION 5.1 (Build 5.3.0.dev0)
  --------------------------------------------------------------

  WARNING 09: time series interval greater than recording interval for Rain Gage RG1
  WARNING 09: time series interval greater than recording interval for Rain Gage RG2
  WARNING 09: time series interval greater than recording interval for Rain Gage RG3
  WARNING 09: time series interval greater than recording interval for Rain Gage RG4
  
  *********************************************************
  NOTE: The summary statistics displayed in this report are
  based on results found at every computational time step,  
  not just on results from each reporting time step.
  *********************************************************
  
  ****************
  Analysis Options
  ****************
  Flow Units ............... CMS
  Process Models:
    Rainfall/Runoff ........ YES
    RDII ................... NO
    Snowmelt ............... NO
    Groundwater ............ NO
    Flow Routing ........... YES
    Ponding Allowed ........ YES
    Water Quality .......... NO
  Infiltration Method ...... HORTON
  Flow Routing Method ...... DYNWAVE
  Surcharge Method ......... EXTRAN
  Starting Date ............ 08/28/2015 00:00:00
  Ending Date .............. 08/28/2015 23:40:00
  Antecedent Dry Days ...... 0.0
  Report Time Step ......... 00:01:00
  Wet Time Step ............ 00:01:00
  Dry Time Step ............ 00:01:00
  Routing Time Step ........ 5.00 sec
  Variable Time Step ....... YES
  Maximum Trials ........... 8
  Number of Threads ........ 1
  Head Tolerance ........... 0.001500 m
  
  
  **************************        Volume         Depth
  Runoff Quantity Continuity     hectare-m            mm
  **************************     ---------       -------
  Total Precipitation ......         3.495        19.393
  Evaporation Loss .........         0.000         0.000
  Infiltration Loss ........         0.000         0.000
  Surface Runoff ...........         3.423        18.995
  Final Storage ............         0.076         0.422
  Continuity Error (%) .....        -0.121
  
  
  **************************        Volume        Volume
  Flow Routing Continuity        hectare-m      10^6 ltr
  **************************     ---------     ---------
  Dry Weather Inflow .......         0.758         7.576
  Wet Weather Inflow .......         3.422        34.223
  Groundwater Inflow .......         0.000         0.000
  RDII Inflow ..............         0.000         0.000
  External Inflow ..........         0.000         0.000
  External Outflow .........         1.739        17.386
  Flooding Loss ............         1.774        17.740
  Evaporation Loss .........         0.000         0.000
  Exfiltration Loss ........         0.000         0.000
  Initial Stored Volume ....         0.000         0.000
  Final Stored Volume ......         0.554         5.545
  Continuity Error (%) .....         2.700
  
  
  *************************
  Highest Continuity Errors
  *************************
  Node T5 (11.74%)
  Node T2 (11.11%)
  Node T3 (7.56%)
  Node T4 (4.88%)
  Node T6 (2.30%)
  
  
  ***************************
  Time-Step Critical Elements
  ***************************
  None
  
  
  ********************************
  Highest Flow Instability Indexes
  ********************************
  All links are stable.
  
  
  *************************
  Routing Time Step Summary
  *************************
  Minimum Time Step           :     0.39 sec
  Average Time Step           :     5.00 sec
  Maximum Time Step           :     5.00 sec
  Percent in Steady State     :     0.00
  Average Iterations per Step :     2.34
  Percent Not Converging      :     1.60
  
  
  ***************************
  Subcatchment Runoff Summary
  ***************************
  
  ------------------------------------------------------------------------------------------------------------------------------
                            Total      Total      Total      Total     Imperv       Perv      Total       Total     Peak  Runoff
                           Precip      Runon       Evap      Infil     Runoff     Runoff     Runoff      Runoff   Runoff   Coeff
  Subcatchment                 mm         mm         mm         mm         mm         mm         mm    10^6 ltr      CMS
  ------------------------------------------------------------------------------------------------------------------------------
  SC01                      20.09       0.00       0.00       0.00      20.06       0.00      20.06        6.62     1.02   0.999
  SC02                      19.94       0.00       0.00       0.00      19.77       0.00      19.77        4.50     0.57   0.992
  SC03                      17.73       0.00       0.00       0.00      17.40       0.00      17.40        3.13     0.56   0.982
  SC04                      19.94       0.00       0.00       0.00      19.73       0.00      19.73        1.36     0.15   0.989
  SC05                      20.09       0.00       0.00       0.00      20.06       0.00      20.06        3.13     0.46   0.998
  SC06                      19.79       0.00       0.00       0.00      18.62       0.00      18.62        6.06     0.65   0.941
  SC07                      19.94       0.00       0.00       0.00      19.73       0.00      19.73        0.94     0.10   0.989
  SC08                      17.73       0.00       0.00       0.00      17.29       0.00      17.29        4.84     0.73   0.975
  SC09                      19.79       0.00       0.00       0.00      18.74       0.00      18.74        1.29     0.15   0.947
  SC010                     20.09       0.00       0.00       0.00      20.04       0.00      20.04        2.36     0.32   0.998
  
  
  ******************
  Node Depth Summary
  ******************
  
  ---------------------------------------------------------------------------------
                                 Average  Maximum  Maximum  Time of Max    Reported
                                   Depth    Depth      HGL   Occurrence   Max Depth
  Node                 Type       Meters   Meters   Meters  days hr:min      Meters
  ---------------------------------------------------------------------------------
  J1                   JUNCTION     0.06     0.22    34.22     0  04:26        0.22
  J3                   JUNCTION     0.10     0.12    18.12     0  06:54        0.12
  CSO7                 JUNCTION     0.14     1.20    35.20     0  03:06        1.20
  J5                   JUNCTION     0.06     0.15    32.15     0  03:32        0.15
  CSO9                 JUNCTION     0.15     2.00    42.00     0  04:15        2.00
  J8                   JUNCTION     0.09     0.28    36.28     0  04:37        0.28
  CSO8                 JUNCTION     0.16     2.00    34.00     0  02:55        2.00
  J10                  JUNCTION     0.08     0.30    29.30     0  03:22        0.30
  J13                  JUNCTION     0.06     0.19    29.19     0  03:31        0.19
  J15                  JUNCTION     0.16     0.36    15.36     0  04:29        0.36
  J16                  JUNCTION     0.06     0.23    30.23     0  04:26        0.23
  CSO10                JUNCTION     0.12     1.00    31.00     0  03:21        1.00
  J12                  JUNCTION     0.62     1.05    27.05     0  04:49        1.05
  J4                   JUNCTION     0.13     1.54    34.54     0  04:41        0.86
  J6                   JUNCTION     0.06     0.07    25.07     0  05:08        0.07
  J2                   JUNCTION     0.00     0.00    25.00     0  00:00        0.00
  J19                  JUNCTION     0.14     0.17     8.17     0  03:45        0.17
  J9                   JUNCTION     0.09     0.11    29.11     0  05:24        0.11
  J14                  JUNCTION     0.13     0.15    20.15     0  04:47        0.15
  J17                  JUNCTION     0.06     0.08    20.08     0  10:10        0.08
  J7                   JUNCTION     0.07     0.23    39.23     0  04:42        0.23
  J11                  JUNCTION     0.07     0.30    31.30     0  03:32        0.30
  J18                  JUNCTION     0.05     0.16    29.16     0  04:49        0.16
  Out_to_WWTP          OUTFALL      0.14     0.17     6.17     0  08:53        0.17
  T5                   STORAGE      4.31     5.00    32.00     0  04:01        5.00
  T4                   STORAGE      3.59     5.00    32.00     0  04:20        5.00
  T6                   STORAGE      3.40     5.00    36.00     0  03:47        5.00
  T3                   STORAGE      4.03     5.00    27.00     0  04:46        5.00
  T2                   STORAGE      3.87     5.00    26.00     0  04:11        5.00
  T1                   STORAGE      3.28     5.00    15.00     0  03:43        5.00
  
  
  *******************
  Node Inflow Summary
  *******************
  
  -------------------------------------------------------------------------------------------------
                                  Maximum  Maximum                  Lateral       Total        Flow
                                  Lateral    Total  Time of Max      Inflow      Inflow     Balance
                                   Inflow   Inflow   Occurrence      Volume      Volume       Error
  Node                 Type           CMS      CMS  days hr:min    10^6 ltr    10^6 ltr     Percent
  -------------------------------------------------------------------------------------------------
  J1                   JUNCTION     0.472    0.472     0  04:26        4.22        4.22      -0.036
  J3                   JUNCTION     0.000    0.152     0  04:48           0        10.6       0.286
  CSO7                 JUNCTION     0.104    0.104     0  03:31         1.5         1.5       0.009
  J5                   JUNCTION     0.150    0.221     0  03:31        1.61        3.08      -0.020
  CSO9                 JUNCTION     0.157    0.157     0  04:36        1.67        1.67       0.075
  J8                   JUNCTION     0.661    0.782     0  04:36        7.89        9.55       0.182
  CSO8                 JUNCTION     0.734    0.734     0  03:21        5.29        5.29       0.001
  J10                  JUNCTION     0.565    1.049     0  03:21        3.88        9.01       0.050
  J13                  JUNCTION     0.572    0.572     0  03:31        5.41        5.41      -0.125
  J15                  JUNCTION     0.000    1.309     0  04:26           0        23.1       0.268
  J16                  JUNCTION     1.026    1.026     0  04:26         7.7         7.7      -0.064
  CSO10                JUNCTION     0.321    0.321     0  04:26        2.63        2.63      -0.055
  J12                  JUNCTION     0.000    0.991     0  03:22           0        13.8       0.150
  J4                   JUNCTION     0.000    0.084     0  03:06           0        1.47       0.007
  J6                   JUNCTION     0.000    0.028     0  04:20           0        1.86       0.147
  J2                   JUNCTION     0.000    0.000     0  00:00           0           0       0.000 ltr
  J19                  JUNCTION     0.000    0.271     0  03:43           0        17.4       0.051
  J9                   JUNCTION     0.000    0.075     0  03:48           0        4.81       0.321
  J14                  JUNCTION     0.000    0.124     0  04:46           0        8.74       0.070
  J17                  JUNCTION     0.000    0.033     0  04:11           0        2.29       0.309
  J7                   JUNCTION     0.000    0.127     0  04:42           0        1.66       0.473
  J11                  JUNCTION     0.000    0.486     0  03:32           0        5.14       0.230
  J18                  JUNCTION     0.000    0.202     0  04:49           0        2.55      -0.041
  Out_to_WWTP          OUTFALL      0.000    0.271     0  03:45           0        17.4       0.000
  T5                   STORAGE      0.000    0.432     0  04:26           0        4.22      13.298
  T4                   STORAGE      0.000    0.212     0  03:32           0        3.08       5.129
  T6                   STORAGE      0.000    0.741     0  04:37           0        9.53       2.354
  T3                   STORAGE      0.000    0.963     0  04:53           0        13.8       8.179
  T2                   STORAGE      0.000    0.528     0  03:31           0        5.41      12.500
  T1                   STORAGE      0.000    1.145     0  04:29           0          23       1.556
  
  
  **********************
  Node Surcharge Summary
  **********************
  
  Surcharging occurs when water rises above the top of the highest conduit.
  ---------------------------------------------------------------------
                                               Max. Height   Min. Depth
                                   Hours       Above Crown    Below Rim
  Node                 Type      Surcharged         Meters       Meters
  ---------------------------------------------------------------------
  CSO7                 JUNCTION        1.55          0.945        0.000
  CSO9                 JUNCTION        1.48          1.682        0.000
  CSO8                 JUNCTION        1.36          1.547        0.000
  CSO10                JUNCTION        0.96          0.560        0.000
  J4                   JUNCTION        1.34          1.236        0.464
  
  
  *********************
  Node Flooding Summary
  *********************
  
  Flooding refers to all water that overflows a node, whether it ponds or not.
  --------------------------------------------------------------------------
                                                             Total   Maximum
                                 Maximum   Time of Max       Flood    Ponded
                        Hours       Rate    Occurrence      Volume     Depth
  Node                 Flooded       CMS   days hr:min    10^6 ltr    Meters
  --------------------------------------------------------------------------
  CSO7                    0.80     0.033      0  03:31       0.033     0.000
  CSO9                    0.25     0.031      0  04:36       0.009     0.000
  CSO8                    0.49     0.247      0  03:21       0.145     0.000
  CSO10                   0.51     0.119      0  04:26       0.073     0.000
  T5                     19.64     0.432      0  04:26       3.228     0.000
  T4                      5.53     0.143      0  04:47       0.870     0.000
  T6                      7.56     0.666      0  04:37       4.361     0.000
  T3                      4.76     0.839      0  04:53       2.101     0.000
  T2                      6.01     0.387      0  07:27       1.907     0.000
  T1                      4.46     0.875      0  04:29       5.012     0.000
  
  
  **********************
  Storage Volume Summary
  **********************
  
  --------------------------------------------------------------------------------------------------
                         Average     Avg  Evap Exfil       Maximum     Max    Time of Max    Maximum
                          Volume    Pcnt  Pcnt  Pcnt        Volume    Pcnt     Occurrence    Outflow
  Storage Unit           1000 m3    Full  Loss  Loss       1000 m3    Full    days hr:min        CMS
  --------------------------------------------------------------------------------------------------
  T5                       0.431      86     0     0         0.500     100       0  04:01      0.000
  T4                       0.359      72     0     0         0.500     100       0  04:20      0.028
  T6                       0.409      68     0     0         0.600     100       0  03:47      0.075
  T3                       2.096      81     0     0         2.600     100       0  04:46      0.124
  T2                       0.775      77     0     0         1.000     100       0  04:11      0.033
  T1                       0.460      66     0     0         0.700     100       0  03:43      0.271
  
  
  ***********************
  Outfall Loading Summary
  ***********************
  
  -----------------------------------------------------------
                         Flow       Avg       Max       Total
                         Freq      Flow      Flow      Volume
  Outfall Node           Pcnt       CMS       CMS    10^6 ltr
  -----------------------------------------------------------
  Out_to_WWTP           99.43     0.205     0.271      17.386
  -----------------------------------------------------------
  System                99.43     0.205     0.271      17.386
  
  
  ********************
  Link Flow Summary
  ********************
  
  -----------------------------------------------------------------------------
                                 Maximum  Time of Max   Maximum    Max/    Max/
                                  |Flow|   Occurrence   |Veloc|    Full    Full
  Link                 Type          CMS  days hr:min     m/sec    Flow   Depth
  -----------------------------------------------------------------------------
  C1                   CONDUIT     0.000     0  00:00      0.00    0.00    0.06
  C6                   CONDUIT     0.071     0  03:32      1.29    1.13    0.76
  C2                   CONDUIT     0.028     0  05:08      0.95    0.03    0.16
  C9                   CONDUIT     0.126     0  04:42      1.28    0.43    0.51
  C16                  CONDUIT     0.491     0  03:22      1.79    0.05    0.15
  C3                   CONDUIT     0.124     0  04:48      1.88    0.05    0.14
  C19                  CONDUIT     0.033     0  05:11      0.64    0.01    0.22
  C11                  CONDUIT     0.152     0  06:52      1.55    0.01    0.12
  C20                  CONDUIT     0.931     0  04:26      3.33    0.03    0.15
  C22                  CONDUIT     0.202     0  04:49      1.60    0.09    0.33
  C12                  CONDUIT     0.075     0  05:24      0.98    0.01    0.29
  C17                  CONDUIT     0.955     0  03:22      3.16    0.05    0.32
  C10                  CONDUIT     0.741     0  04:37      0.93    0.08    0.59
  C13                  CONDUIT     0.963     0  04:53      1.73    0.06    0.76
  C18                  CONDUIT     0.528     0  03:31      1.01    0.02    0.55
  C23                  CONDUIT     1.145     0  04:29      1.43    0.13    0.62
  C4                   CONDUIT     0.432     0  04:26      1.12    0.10    0.61
  C7                   CONDUIT     0.212     0  03:32      0.80    0.05    0.58
  C14                  CONDUIT     0.271     0  03:45      2.08    0.02    0.09
  C5                   CONDUIT     0.084     0  03:06      1.65    1.43    1.00
  C8                   CONDUIT     0.127     0  04:42      1.83    1.60    0.86
  C15                  CONDUIT     0.486     0  03:32      3.52    1.55    0.83
  C21                  CONDUIT     0.202     0  04:49      1.85    1.16    0.69
  V4                   ORIFICE     0.028     0  04:20                      0.35
  V5                   ORIFICE     0.000     0  00:00                      0.00
  V1                   ORIFICE     0.271     0  03:43                      1.00
  V6                   ORIFICE     0.075     0  03:48                      0.43
  V3                   ORIFICE     0.124     0  04:46                      0.65
  V2                   ORIFICE     0.033     0  04:11                      0.24
  
  
  ***************************
  Flow Classification Summary
  ***************************
  
  -------------------------------------------------------------------------------------
                      Adjusted    ---------- Fraction of Time in Flow Class ---------- 
                       /Actual         Up    Down  Sub   Sup   Up    Down  Norm  Inlet 
  Conduit               Length    Dry  Dry   Dry   Crit  Crit  Crit  Crit  Ltd   Ctrl  
  -------------------------------------------------------------------------------------
  C1                      1.00   0.13  0.87  0.00  0.00  0.00  0.00  0.00  0.00  0.00
  C6                      1.00   0.00  0.00  0.00  0.08  0.92  0.00  0.00  0.00  0.00
  C2                      1.00   0.13  0.00  0.00  0.10  0.77  0.00  0.00  0.86  0.00
  C9                      1.00   0.00  0.00  0.00  1.00  0.00  0.00  0.00  1.00  0.00
  C16                     1.00   0.00  0.08  0.00  0.57  0.35  0.00  0.00  0.47  0.00
  C3                      1.00   0.13  0.00  0.00  0.00  0.87  0.00  0.00  0.00  0.00
  C19                     1.00   0.00  0.13  0.00  0.87  0.00  0.00  0.00  0.87  0.00
  C11                     1.00   0.00  0.13  0.00  0.13  0.73  0.00  0.00  0.87  0.00
  C20                     1.00   0.00  0.00  0.00  0.66  0.34  0.00  0.00  0.99  0.00
  C22                     1.00   0.00  0.00  0.00  0.85  0.15  0.00  0.00  1.00  0.00
  C12                     1.00   0.00  0.13  0.00  0.80  0.07  0.00  0.00  0.81  0.00
  C17                     1.00   0.00  0.00  0.00  0.81  0.19  0.00  0.00  0.95  0.00
  C10                     1.00   0.00  0.00  0.00  0.98  0.02  0.00  0.00  0.98  0.00
  C13                     1.00   0.00  0.00  0.00  0.90  0.10  0.00  0.00  0.16  0.00
  C18                     1.00   0.00  0.00  0.00  0.96  0.04  0.00  0.00  0.98  0.00
  C23                     1.00   0.00  0.00  0.00  0.89  0.11  0.00  0.00  0.92  0.00
  C4                      1.00   0.00  0.00  0.00  0.98  0.02  0.00  0.00  0.99  0.00
  C7                      1.00   0.00  0.00  0.00  0.97  0.03  0.00  0.00  0.98  0.00
  C14                     1.00   0.00  0.00  0.00  0.00  1.00  0.00  0.00  0.47  0.00
  C5                      1.00   0.00  0.00  0.00  0.93  0.07  0.00  0.00  0.90  0.00
  C8                      1.00   0.00  0.00  0.00  0.21  0.79  0.00  0.00  0.01  0.00
  C15                     1.00   0.08  0.00  0.00  0.02  0.89  0.00  0.00  0.02  0.00
  C21                     1.00   0.00  0.00  0.00  0.01  0.99  0.00  0.00  0.00  0.00
  
  
  *************************
  Conduit Surcharge Summary
  *************************
  
  ----------------------------------------------------------------------------
                                                           Hours        Hours 
                         --------- Hours Full --------   Above Full   Capacity
  Conduit                Both Ends  Upstream  Dnstream   Normal Flow   Limited
  ----------------------------------------------------------------------------
  C6                          0.01      1.34      0.01      1.09         0.01
  C10                         0.01      0.01     19.46      0.01         0.01
  C13                         0.01      0.01     20.36      0.01         0.01
  C18                         0.01      0.01     20.44      0.01         0.01
  C23                         0.01      0.01     20.53      0.01         0.01
  C4                          0.01      0.01     20.77      0.01         0.01
  C7                          0.01      0.01     20.59      0.01         0.01
  C5                          1.50      1.55      1.80      1.68         1.42
  C8                          0.01      1.49      0.01      1.48         0.01
  C15                         0.01      1.36      0.01      1.59         0.01
  C21                         0.01      0.97      0.01      0.89         0.01
  

  Analysis begun on:  Tue Sep 21 10:36:10 2021
  Analysis ended on:  Tue Sep 21 10:36:11 2021
  Total elapsed time: 00:00:01