
  EPA STORM WATER MANAGEMENT MODEL - VERSION 5.1 (Build 5.3.0.dev0)
  --------------------------------------------------------------

  WARNING 09: time series interval greater than recording interval for Rain Gage RG1
  WARNING 09: time series interval greater than recording interval for Rain Gage RG2
  WARNING 09: time series interval greater than recording interval for Rain Gage RG3
  WARNING 09: time series interval greater than recording interval for Rain Gage RG4
  
  *********************************************************
  NOTE: The summary statistics displayed in this report are
  based on results found at every computational time step,  
  not just on results from each reporting time step.
  *********************************************************
  
  ****************
  Analysis Options
  ****************
  Flow Units ............... CMS
  Process Models:
    Rainfall/Runoff ........ YES
    RDII ................... NO
    Snowmelt ............... NO
    Groundwater ............ NO
    Flow Routing ........... YES
    Ponding Allowed ........ YES
    Water Quality .......... NO
  Infiltration Method ...... HORTON
  Flow Routing Method ...... DYNWAVE
  Surcharge Method ......... EXTRAN
  Starting Date ............ 08/28/2015 00:00:00
  Ending Date .............. 08/28/2015 23:40:00
  Antecedent Dry Days ...... 0.0
  Report Time Step ......... 00:01:00
  Wet Time Step ............ 00:01:00
  Dry Time Step ............ 00:01:00
  Routing Time Step ........ 5.00 sec
  Variable Time Step ....... YES
  Maximum Trials ........... 8
  Number of Threads ........ 1
  Head Tolerance ........... 0.001500 m
  
  
  **************************        Volume         Depth
  Runoff Quantity Continuity     hectare-m            mm
  **************************     ---------       -------
  Total Precipitation ......         3.092        17.160
  Evaporation Loss .........         0.000         0.000
  Infiltration Loss ........         0.000         0.000
  Surface Runoff ...........         3.078        17.081
  Final Storage ............         0.027         0.149
  Continuity Error (%) .....        -0.408
  
  
  **************************        Volume        Volume
  Flow Routing Continuity        hectare-m      10^6 ltr
  **************************     ---------     ---------
  Dry Weather Inflow .......         0.758         7.576
  Wet Weather Inflow .......         3.078        30.781
  Groundwater Inflow .......         0.000         0.000
  RDII Inflow ..............         0.000         0.000
  External Inflow ..........         0.000         0.000
  External Outflow .........         1.326        13.257
  Flooding Loss ............         1.707        17.073
  Evaporation Loss .........         0.000         0.000
  Exfiltration Loss ........         0.000         0.000
  Initial Stored Volume ....         0.000         0.000
  Final Stored Volume ......         0.648         6.478
  Continuity Error (%) .....         4.037
  
  
  *************************
  Highest Continuity Errors
  *************************
  Node T2 (15.38%)
  Node T5 (14.16%)
  Node T3 (9.37%)
  Node T4 (7.86%)
  Node T6 (7.49%)
  
  
  ***************************
  Time-Step Critical Elements
  ***************************
  None
  
  
  ********************************
  Highest Flow Instability Indexes
  ********************************
  All links are stable.
  
  
  *************************
  Routing Time Step Summary
  *************************
  Minimum Time Step           :     4.50 sec
  Average Time Step           :     5.00 sec
  Maximum Time Step           :     5.00 sec
  Percent in Steady State     :     0.00
  Average Iterations per Step :     2.07
  Percent Not Converging      :     0.01
  
  
  ***************************
  Subcatchment Runoff Summary
  ***************************
  
  ------------------------------------------------------------------------------------------------------------------------------
                            Total      Total      Total      Total     Imperv       Perv      Total       Total     Peak  Runoff
                           Precip      Runon       Evap      Infil     Runoff     Runoff     Runoff      Runoff   Runoff   Coeff
  Subcatchment                 mm         mm         mm         mm         mm         mm         mm    10^6 ltr      CMS
  ------------------------------------------------------------------------------------------------------------------------------
  SC01                      15.57       0.00       0.00       0.00      15.55       0.00      15.55        5.13     3.92   0.999
  SC02                       2.30       0.00       0.00       0.00       2.20       0.00       2.20        0.50     0.07   0.958
  SC03                      30.89       0.00       0.00       0.00      31.10       0.00      31.10        5.60     4.05   1.007
  SC04                       2.30       0.00       0.00       0.00       2.11       0.00       2.11        0.15     0.01   0.917
  SC05                      15.57       0.00       0.00       0.00      15.53       0.00      15.53        2.42     1.73   0.998
  SC06                      16.54       0.00       0.00       0.00      16.24       0.00      16.24        5.29     0.71   0.982
  SC07                       2.30       0.00       0.00       0.00       2.11       0.00       2.11        0.10     0.01   0.917
  SC08                      30.89       0.00       0.00       0.00      30.87       0.00      30.87        8.64     4.57   0.999
  SC09                      16.54       0.00       0.00       0.00      16.38       0.00      16.38        1.13     0.21   0.990
  SC010                     15.57       0.00       0.00       0.00      15.50       0.00      15.50        1.82     1.07   0.995
  
  
  ******************
  Node Depth Summary
  ******************
  
  ---------------------------------------------------------------------------------
                                 Average  Maximum  Maximum  Time of Max    Reported
                                   Depth    Depth      HGL   Occurrence   Max Depth
  Node                 Type       Meters   Meters   Meters  days hr:min      Meters
  ---------------------------------------------------------------------------------
  J1                   JUNCTION     0.06     0.47    34.47     0  17:56        0.47
  J3                   JUNCTION     0.08     0.12    18.12     0  21:02        0.12
  CSO7                 JUNCTION     0.06     0.09    34.09     0  19:47        0.09
  J5                   JUNCTION     0.04     0.06    32.06     0  19:52        0.06
  CSO9                 JUNCTION     0.14     2.00    42.00     0  17:56        2.00
  J8                   JUNCTION     0.09     0.29    36.29     0  18:32        0.29
  CSO8                 JUNCTION     0.18     2.00    34.00     0  17:45        2.00
  J10                  JUNCTION     0.08     0.60    29.60     0  18:01        0.59
  J13                  JUNCTION     0.04     0.08    29.08     0  01:42        0.08
  J15                  JUNCTION     0.13     0.57    15.57     0  17:58        0.57
  J16                  JUNCTION     0.06     0.47    30.47     0  17:56        0.45
  CSO10                JUNCTION     0.11     1.00    31.00     0  17:50        1.00
  J12                  JUNCTION     0.30     1.20    27.20     0  18:13        1.20
  J4                   JUNCTION     0.08     0.11    33.11     0  19:53        0.11
  J6                   JUNCTION     0.04     0.05    25.05     0  21:04        0.05
  J2                   JUNCTION     0.00     0.00    25.00     0  00:00        0.00
  J19                  JUNCTION     0.13     0.17     8.17     0  18:04        0.17
  J9                   JUNCTION     0.08     0.11    29.11     0  05:49        0.11
  J14                  JUNCTION     0.10     0.15    20.15     0  18:15        0.15
  J17                  JUNCTION     0.04     0.05    20.05     0  21:03        0.05
  J7                   JUNCTION     0.07     0.23    39.23     0  18:19        0.23
  J11                  JUNCTION     0.07     0.30    31.30     0  19:01        0.30
  J18                  JUNCTION     0.05     0.16    29.16     0  18:12        0.16
  Out_to_WWTP          OUTFALL      0.12     0.17     6.17     0  18:59        0.17
  T5                   STORAGE      3.94     5.00    32.00     0  08:31        5.00
  T4                   STORAGE      0.99     1.39    28.39     0  21:02        1.39
  T6                   STORAGE      3.48     5.00    36.00     0  04:13        5.00
  T3                   STORAGE      2.06     5.00    27.00     0  18:13        5.00
  T2                   STORAGE      0.90     1.33    22.33     0  21:01        1.33
  T1                   STORAGE      2.02     5.00    15.00     0  18:02        5.00
  
  
  *******************
  Node Inflow Summary
  *******************
  
  -------------------------------------------------------------------------------------------------
                                  Maximum  Maximum                  Lateral       Total        Flow
                                  Lateral    Total  Time of Max      Inflow      Inflow     Balance
                                   Inflow   Inflow   Occurrence      Volume      Volume       Error
  Node                 Type           CMS      CMS  days hr:min    10^6 ltr    10^6 ltr     Percent
  -------------------------------------------------------------------------------------------------
  J1                   JUNCTION     1.740    1.740     0  17:56        3.52        3.52      -0.038
  J3                   JUNCTION     0.000    0.138     0  21:00           0        6.38       0.475
  CSO7                 JUNCTION     0.016    0.016     0  19:46       0.665       0.665       0.021
  J5                   JUNCTION     0.016    0.031     0  19:46       0.394        1.06       0.016
  CSO9                 JUNCTION     0.213    0.213     0  18:06        1.51        1.51      -0.004
  J8                   JUNCTION     0.730    0.853     0  18:26        7.12        8.57       0.010
  CSO8                 JUNCTION     4.569    4.569     0  18:01        9.09        9.09      -0.027
  J10                  JUNCTION     4.062    4.547     0  18:01        6.35        10.3      -0.195
  J13                  JUNCTION     0.076    0.076     0  01:41        1.41        1.41      -0.219
  J15                  JUNCTION     0.000    4.085     0  17:56           0        15.3       0.461
  J16                  JUNCTION     3.938    3.938     0  17:56        6.21        6.21      -0.151
  CSO10                JUNCTION     1.073    1.073     0  17:56        2.09        2.09      -0.042
  J12                  JUNCTION     0.000    3.774     0  18:02           0        14.7       4.525
  J4                   JUNCTION     0.000    0.016     0  19:47           0       0.665       0.192
  J6                   JUNCTION     0.000    0.015     0  21:02           0       0.872       0.244
  J2                   JUNCTION     0.000    0.000     0  00:00           0           0       0.000 ltr
  J19                  JUNCTION     0.000    0.271     0  18:03           0        13.3       0.073
  J9                   JUNCTION     0.000    0.075     0  18:19           0        4.27       0.412
  J14                  JUNCTION     0.000    0.124     0  18:13           0        5.52       0.127
  J17                  JUNCTION     0.000    0.017     0  21:01           0       0.969       0.426
  J7                   JUNCTION     0.000    0.127     0  18:19           0        1.45       0.088
  J11                  JUNCTION     0.000    0.486     0  18:59           0        3.99       0.228
  J18                  JUNCTION     0.000    0.202     0  18:12           0        1.75      -0.004
  Out_to_WWTP          OUTFALL      0.000    0.271     0  18:04           0        13.3       0.000
  T5                   STORAGE      0.000    1.533     0  17:57           0        3.52      16.496
  T4                   STORAGE      0.000    0.031     0  19:52           0        1.06       8.528
  T6                   STORAGE      0.000    0.807     0  18:32           0        8.57       8.096
  T3                   STORAGE      0.000    3.189     0  18:03           0          14      10.337
  T2                   STORAGE      0.000    0.071     0  01:42           0        1.41      18.173
  T1                   STORAGE      0.000    2.814     0  17:58           0        15.2       2.708
  
  
  **********************
  Node Surcharge Summary
  **********************
  
  Surcharging occurs when water rises above the top of the highest conduit.
  ---------------------------------------------------------------------
                                               Max. Height   Min. Depth
                                   Hours       Above Crown    Below Rim
  Node                 Type      Surcharged         Meters       Meters
  ---------------------------------------------------------------------
  CSO9                 JUNCTION        0.90          1.682        0.000
  CSO8                 JUNCTION        1.38          1.547        0.000
  CSO10                JUNCTION        0.42          0.560        0.000
  
  
  *********************
  Node Flooding Summary
  *********************
  
  Flooding refers to all water that overflows a node, whether it ponds or not.
  --------------------------------------------------------------------------
                                                             Total   Maximum
                                 Maximum   Time of Max       Flood    Ponded
                        Hours       Rate    Occurrence      Volume     Depth
  Node                 Flooded       CMS   days hr:min    10^6 ltr    Meters
  --------------------------------------------------------------------------
  CSO9                    0.57     0.087      0  18:01       0.063     0.000
  CSO8                    1.24     4.080      0  18:01       5.101     0.000
  CSO10                   0.36     0.871      0  17:56       0.346     0.000
  T5                     15.14     1.532      0  17:57       2.520     0.000
  T6                      4.23     0.731      0  18:32       3.203     0.000
  T3                      2.29     2.968      0  18:15       4.636     0.000
  T1                      0.79     1.899      0  18:02       1.204     0.000
  
  
  **********************
  Storage Volume Summary
  **********************
  
  --------------------------------------------------------------------------------------------------
                         Average     Avg  Evap Exfil       Maximum     Max    Time of Max    Maximum
                          Volume    Pcnt  Pcnt  Pcnt        Volume    Pcnt     Occurrence    Outflow
  Storage Unit           1000 m3    Full  Loss  Loss       1000 m3    Full    days hr:min        CMS
  --------------------------------------------------------------------------------------------------
  T5                       0.394      79     0     0         0.500     100       0  08:31      0.000
  T4                       0.099      20     0     0         0.139      28       0  21:02      0.015
  T6                       0.417      70     0     0         0.600     100       0  04:13      0.075
  T3                       1.073      41     0     0         2.600     100       0  18:13      0.755
  T2                       0.179      18     0     0         0.266      27       0  21:01      0.017
  T1                       0.283      40     0     0         0.700     100       0  18:02      0.271
  
  
  ***********************
  Outfall Loading Summary
  ***********************
  
  -----------------------------------------------------------
                         Flow       Avg       Max       Total
                         Freq      Flow      Flow      Volume
  Outfall Node           Pcnt       CMS       CMS    10^6 ltr
  -----------------------------------------------------------
  Out_to_WWTP           99.43     0.157     0.271      13.257
  -----------------------------------------------------------
  System                99.43     0.157     0.271      13.257
  
  
  ********************
  Link Flow Summary
  ********************
  
  -----------------------------------------------------------------------------
                                 Maximum  Time of Max   Maximum    Max/    Max/
                                  |Flow|   Occurrence   |Veloc|    Full    Full
  Link                 Type          CMS  days hr:min     m/sec    Flow   Depth
  -----------------------------------------------------------------------------
  C1                   CONDUIT     0.000     0  00:00      0.00    0.00    0.06
  C6                   CONDUIT     0.016     0  19:53      0.94    0.25    0.29
  C2                   CONDUIT     0.015     0  21:04      0.92    0.02    0.14
  C9                   CONDUIT     0.127     0  18:19      1.29    0.43    0.52
  C16                  CONDUIT     0.490     0  18:46      1.81    0.05    0.22
  C3                   CONDUIT     0.124     0  18:16      1.94    0.05    0.14
  C19                  CONDUIT     0.017     0  21:03      0.45    0.01    0.31
  C11                  CONDUIT     0.138     0  21:02      1.61    0.01    0.17
  C20                  CONDUIT     3.773     0  17:56      6.64    0.12    0.24
  C22                  CONDUIT     0.202     0  18:12      1.51    0.09    0.46
  C12                  CONDUIT     0.076     0  05:52      1.14    0.01    0.33
  C17                  CONDUIT     3.723     0  18:02      5.01    0.18    0.41
  C10                  CONDUIT     0.807     0  18:32      0.93    0.08    0.60
  C13                  CONDUIT     3.189     0  18:03      1.86    0.19    0.80
  C18                  CONDUIT     0.071     0  01:42      1.07    0.00    0.34
  C23                  CONDUIT     2.814     0  17:58      2.16    0.31    0.69
  C4                   CONDUIT     1.533     0  17:57      2.48    0.37    0.74
  C7                   CONDUIT     0.031     0  19:52      0.86    0.01    0.53
  C14                  CONDUIT     0.271     0  18:04      2.08    0.02    0.09
  C5                   CONDUIT     0.016     0  19:47      0.86    0.28    0.39
  C8                   CONDUIT     0.127     0  18:19      1.86    1.60    0.86
  C15                  CONDUIT     0.486     0  18:59      4.10    1.55    0.83
  C21                  CONDUIT     0.202     0  18:12      2.04    1.16    0.69
  V4                   ORIFICE     0.015     0  21:02                      0.35
  V5                   ORIFICE     0.000     0  00:00                      0.00
  V1                   ORIFICE     0.271     0  18:03                      1.00
  V6                   ORIFICE     0.075     0  18:19                      0.43
  V3                   ORIFICE     0.124     0  18:13                      0.65
  V2                   ORIFICE     0.017     0  21:01                      0.24
  
  
  ***************************
  Flow Classification Summary
  ***************************
  
  -------------------------------------------------------------------------------------
                      Adjusted    ---------- Fraction of Time in Flow Class ---------- 
                       /Actual         Up    Down  Sub   Sup   Up    Down  Norm  Inlet 
  Conduit               Length    Dry  Dry   Dry   Crit  Crit  Crit  Crit  Ltd   Ctrl  
  -------------------------------------------------------------------------------------
  C1                      1.00   0.23  0.77  0.00  0.00  0.00  0.00  0.00  0.00  0.00
  C6                      1.00   0.00  0.00  0.00  0.01  0.99  0.00  0.00  0.00  0.00
  C2                      1.00   0.23  0.00  0.00  0.49  0.28  0.00  0.00  0.76  0.00
  C9                      1.00   0.00  0.00  0.00  1.00  0.00  0.00  0.00  1.00  0.00
  C16                     1.00   0.00  0.03  0.00  0.72  0.25  0.00  0.00  0.51  0.00
  C3                      1.00   0.23  0.00  0.00  0.00  0.77  0.00  0.00  0.00  0.00
  C19                     1.00   0.00  0.23  0.00  0.77  0.00  0.00  0.00  0.77  0.00
  C11                     1.00   0.00  0.23  0.00  0.10  0.66  0.00  0.00  0.77  0.00
  C20                     1.00   0.00  0.00  0.00  0.57  0.43  0.00  0.00  0.99  0.00
  C22                     1.00   0.00  0.00  0.00  0.80  0.20  0.00  0.00  1.00  0.00
  C12                     1.00   0.00  0.23  0.00  0.25  0.51  0.00  0.00  0.75  0.00
  C17                     1.00   0.00  0.00  0.00  0.74  0.26  0.00  0.00  0.94  0.00
  C10                     1.00   0.00  0.00  0.00  0.98  0.02  0.00  0.00  0.98  0.00
  C13                     1.00   0.00  0.00  0.00  0.95  0.05  0.00  0.00  0.72  0.00
  C18                     1.00   0.00  0.00  0.00  0.97  0.03  0.00  0.00  0.98  0.00
  C23                     1.00   0.00  0.00  0.00  0.90  0.10  0.00  0.00  0.92  0.00
  C4                      1.00   0.00  0.00  0.00  0.98  0.02  0.00  0.00  0.99  0.00
  C7                      1.00   0.00  0.00  0.00  0.97  0.03  0.00  0.00  0.98  0.00
  C14                     1.00   0.00  0.00  0.00  0.00  1.00  0.00  0.00  0.50  0.00
  C5                      1.00   0.00  0.00  0.00  0.91  0.09  0.00  0.00  0.99  0.00
  C8                      1.00   0.00  0.00  0.00  0.12  0.88  0.00  0.00  0.00  0.00
  C15                     1.00   0.02  0.00  0.00  0.00  0.97  0.00  0.00  0.00  0.00
  C21                     1.00   0.00  0.00  0.00  0.00  1.00  0.00  0.00  0.00  0.00
  
  
  *************************
  Conduit Surcharge Summary
  *************************
  
  ----------------------------------------------------------------------------
                                                           Hours        Hours 
                         --------- Hours Full --------   Above Full   Capacity
  Conduit                Both Ends  Upstream  Dnstream   Normal Flow   Limited
  ----------------------------------------------------------------------------
  C10                         0.01      0.01     21.09      0.01         0.01
  C13                         0.01      0.01      5.83      0.01         0.01
  C23                         0.01      0.01     11.90      0.01         0.01
  C4                          0.01      0.01     20.77      0.01         0.01
  C7                          0.01      0.01     13.73      0.01         0.01
  C8                          0.01      0.90      0.01      0.91         0.01
  C15                         0.01      1.38      0.01      1.40         0.01
  C21                         0.01      0.42      0.01      0.40         0.01
  

  Analysis begun on:  Tue Sep 21 10:37:11 2021
  Analysis ended on:  Tue Sep 21 10:37:11 2021
  Total elapsed time: < 1 sec