
  EPA STORM WATER MANAGEMENT MODEL - VERSION 5.1 (Build 5.3.0.dev0)
  --------------------------------------------------------------

  WARNING 09: time series interval greater than recording interval for Rain Gage RG1
  WARNING 09: time series interval greater than recording interval for Rain Gage RG2
  WARNING 09: time series interval greater than recording interval for Rain Gage RG3
  WARNING 09: time series interval greater than recording interval for Rain Gage RG4
  
  *********************************************************
  NOTE: The summary statistics displayed in this report are
  based on results found at every computational time step,  
  not just on results from each reporting time step.
  *********************************************************
  
  ****************
  Analysis Options
  ****************
  Flow Units ............... CMS
  Process Models:
    Rainfall/Runoff ........ YES
    RDII ................... NO
    Snowmelt ............... NO
    Groundwater ............ NO
    Flow Routing ........... YES
    Ponding Allowed ........ YES
    Water Quality .......... NO
  Infiltration Method ...... HORTON
  Flow Routing Method ...... DYNWAVE
  Surcharge Method ......... EXTRAN
  Starting Date ............ 08/28/2015 00:00:00
  Ending Date .............. 08/28/2015 23:40:00
  Antecedent Dry Days ...... 0.0
  Report Time Step ......... 00:01:00
  Wet Time Step ............ 00:01:00
  Dry Time Step ............ 00:01:00
  Routing Time Step ........ 5.00 sec
  Variable Time Step ....... YES
  Maximum Trials ........... 8
  Number of Threads ........ 1
  Head Tolerance ........... 0.001500 m
  
  
  **************************        Volume         Depth
  Runoff Quantity Continuity     hectare-m            mm
  **************************     ---------       -------
  Total Precipitation ......         3.452        19.158
  Evaporation Loss .........         0.000         0.000
  Infiltration Loss ........         0.000         0.000
  Surface Runoff ...........         3.443        19.109
  Final Storage ............         0.014         0.079
  Continuity Error (%) .....        -0.153
  
  
  **************************        Volume        Volume
  Flow Routing Continuity        hectare-m      10^6 ltr
  **************************     ---------     ---------
  Dry Weather Inflow .......         0.758         7.576
  Wet Weather Inflow .......         3.443        34.435
  Groundwater Inflow .......         0.000         0.000
  RDII Inflow ..............         0.000         0.000
  External Inflow ..........         0.000         0.000
  External Outflow .........         1.447        14.465
  Flooding Loss ............         2.089        20.891
  Evaporation Loss .........         0.000         0.000
  Exfiltration Loss ........         0.000         0.000
  Initial Stored Volume ....         0.000         0.000
  Final Stored Volume ......         0.552         5.517
  Continuity Error (%) .....         2.705
  
  
  *************************
  Highest Continuity Errors
  *************************
  Node T5 (12.33%)
  Node T2 (10.42%)
  Node T3 (7.60%)
  Node T4 (4.98%)
  Node T6 (2.50%)
  
  
  ***************************
  Time-Step Critical Elements
  ***************************
  None
  
  
  ********************************
  Highest Flow Instability Indexes
  ********************************
  Link C5 (1)
  
  
  *************************
  Routing Time Step Summary
  *************************
  Minimum Time Step           :     4.50 sec
  Average Time Step           :     5.00 sec
  Maximum Time Step           :     5.00 sec
  Percent in Steady State     :     0.00
  Average Iterations per Step :     2.29
  Percent Not Converging      :     0.78
  
  
  ***************************
  Subcatchment Runoff Summary
  ***************************
  
  ------------------------------------------------------------------------------------------------------------------------------
                            Total      Total      Total      Total     Imperv       Perv      Total       Total     Peak  Runoff
                           Precip      Runon       Evap      Infil     Runoff     Runoff     Runoff      Runoff   Runoff   Coeff
  Subcatchment                 mm         mm         mm         mm         mm         mm         mm    10^6 ltr      CMS
  ------------------------------------------------------------------------------------------------------------------------------
  SC01                      18.54       0.00       0.00       0.00      18.50       0.00      18.50        6.10     1.69   0.998
  SC02                      21.09       0.00       0.00       0.00      21.05       0.00      21.05        4.79     1.29   0.998
  SC03                      21.92       0.00       0.00       0.00      21.94       0.00      21.94        3.95     1.42   1.001
  SC04                      21.09       0.00       0.00       0.00      20.99       0.00      20.99        1.45     0.28   0.995
  SC05                      18.54       0.00       0.00       0.00      18.49       0.00      18.49        2.88     0.77   0.997
  SC06                      15.20       0.00       0.00       0.00      15.11       0.00      15.11        4.92     0.56   0.994
  SC07                      21.09       0.00       0.00       0.00      21.00       0.00      21.00        1.00     0.19   0.996
  SC08                      21.92       0.00       0.00       0.00      21.88       0.00      21.88        6.13     1.53   0.998
  SC09                      15.20       0.00       0.00       0.00      15.14       0.00      15.14        1.04     0.14   0.996
  SC010                     18.54       0.00       0.00       0.00      18.48       0.00      18.48        2.17     0.52   0.997
  
  
  ******************
  Node Depth Summary
  ******************
  
  ---------------------------------------------------------------------------------
                                 Average  Maximum  Maximum  Time of Max    Reported
                                   Depth    Depth      HGL   Occurrence   Max Depth
  Node                 Type       Meters   Meters   Meters  days hr:min      Meters
  ---------------------------------------------------------------------------------
  J1                   JUNCTION     0.06     0.28    34.28     0  07:01        0.28
  J3                   JUNCTION     0.08     0.12    18.12     0  09:18        0.12
  CSO7                 JUNCTION     0.17     1.20    35.20     0  06:51        1.20
  J5                   JUNCTION     0.05     0.19    32.19     0  08:57        0.19
  CSO9                 JUNCTION     0.13     2.00    42.00     0  06:56        2.00
  J8                   JUNCTION     0.08     0.27    36.27     0  08:57        0.27
  CSO8                 JUNCTION     0.20     2.00    34.00     0  06:45        2.00
  J10                  JUNCTION     0.07     0.38    29.38     0  08:52        0.38
  J13                  JUNCTION     0.05     0.29    29.29     0  08:56        0.28
  J15                  JUNCTION     0.14     0.42    15.42     0  07:03        0.41
  J16                  JUNCTION     0.05     0.30    30.30     0  07:01        0.30
  CSO10                JUNCTION     0.11     1.00    31.00     0  06:51        1.00
  J12                  JUNCTION     0.50     1.05    27.05     0  08:28        1.05
  J4                   JUNCTION     0.14     1.54    34.54     0  06:55        0.77
  J6                   JUNCTION     0.05     0.07    25.07     0  08:37        0.07
  J2                   JUNCTION     0.00     0.00    25.00     0  00:00        0.00
  J19                  JUNCTION     0.13     0.17     8.17     0  07:12        0.17
  J9                   JUNCTION     0.07     0.11    29.11     0  09:25        0.11
  J14                  JUNCTION     0.10     0.15    20.15     0  08:16        0.15
  J17                  JUNCTION     0.05     0.08    20.08     0  08:41        0.08
  J7                   JUNCTION     0.06     0.23    39.23     0  08:57        0.23
  J11                  JUNCTION     0.07     0.30    31.30     0  09:07        0.30
  J18                  JUNCTION     0.04     0.16    29.16     0  07:19        0.16
  Out_to_WWTP          OUTFALL      0.12     0.17     6.17     0  11:22        0.17
  T5                   STORAGE      3.68     5.00    32.00     0  07:07        5.00
  T4                   STORAGE      2.90     5.00    32.00     0  07:49        5.00
  T6                   STORAGE      2.77     5.00    36.00     0  07:18        5.00
  T3                   STORAGE      3.34     5.00    27.00     0  08:14        5.00
  T2                   STORAGE      3.13     5.00    26.00     0  07:42        5.00
  T1                   STORAGE      2.63     5.00    15.00     0  07:11        5.00
  
  
  *******************
  Node Inflow Summary
  *******************
  
  -------------------------------------------------------------------------------------------------
                                  Maximum  Maximum                  Lateral       Total        Flow
                                  Lateral    Total  Time of Max      Inflow      Inflow     Balance
                                   Inflow   Inflow   Occurrence      Volume      Volume       Error
  Node                 Type           CMS      CMS  days hr:min    10^6 ltr    10^6 ltr     Percent
  -------------------------------------------------------------------------------------------------
  J1                   JUNCTION     0.784    0.784     0  07:01        3.98        3.98      -0.015
  J3                   JUNCTION     0.000    0.152     0  08:18           0        8.44       0.366
  CSO7                 JUNCTION     0.198    0.198     0  08:56        1.56        1.56       0.002
  J5                   JUNCTION     0.279    0.352     0  08:56         1.7        3.05       0.005
  CSO9                 JUNCTION     0.144    0.144     0  08:51        1.43        1.43      -0.014
  J8                   JUNCTION     0.588    0.701     0  08:56        6.75        8.17       0.005
  CSO8                 JUNCTION     1.541    1.541     0  08:51        6.58        6.58      -0.021
  J10                  JUNCTION     1.426    1.913     0  08:51         4.7        10.2      -0.088
  J13                  JUNCTION     1.302    1.302     0  08:56         5.7         5.7      -0.080
  J15                  JUNCTION     0.000    1.774     0  07:01           0        19.7       0.322
  J16                  JUNCTION     1.706    1.706     0  07:01        7.18        7.18      -0.072
  CSO10                JUNCTION     0.521    0.521     0  07:01        2.44        2.44      -0.029
  J12                  JUNCTION     0.000    1.642     0  08:52           0        13.9       0.101
  J4                   JUNCTION     0.000    0.082     0  06:51           0        1.35      -0.002
  J6                   JUNCTION     0.000    0.028     0  07:49           0        1.46       0.184
  J2                   JUNCTION     0.000    0.000     0  00:00           0           0       0.000 ltr
  J19                  JUNCTION     0.000    0.271     0  07:11           0        14.5       0.062
  J9                   JUNCTION     0.000    0.075     0  07:30           0        3.73       0.412
  J14                  JUNCTION     0.000    0.124     0  08:15           0        6.99       0.088
  J17                  JUNCTION     0.000    0.033     0  07:42           0        1.81       0.402
  J7                   JUNCTION     0.000    0.126     0  08:57           0        1.42       0.057
  J11                  JUNCTION     0.000    0.487     0  09:06           0        5.46       0.017
  J18                  JUNCTION     0.000    0.202     0  07:19           0        2.26      -0.046
  Out_to_WWTP          OUTFALL      0.000    0.271     0  07:13           0        14.5       0.000
  T5                   STORAGE      0.000    0.728     0  07:01           0        3.98      14.064
  T4                   STORAGE      0.000    0.327     0  08:57           0        3.05       5.238
  T6                   STORAGE      0.000    0.673     0  08:57           0        8.17       2.569
  T3                   STORAGE      0.000    1.665     0  08:55           0        13.9       8.223
  T2                   STORAGE      0.000    1.183     0  08:56           0         5.7      11.637
  T1                   STORAGE      0.000    1.518     0  07:03           0        19.6       1.841
  
  
  **********************
  Node Surcharge Summary
  **********************
  
  Surcharging occurs when water rises above the top of the highest conduit.
  ---------------------------------------------------------------------
                                               Max. Height   Min. Depth
                                   Hours       Above Crown    Below Rim
  Node                 Type      Surcharged         Meters       Meters
  ---------------------------------------------------------------------
  CSO7                 JUNCTION        2.42          0.945        0.000
  CSO9                 JUNCTION        1.26          1.682        0.000
  CSO8                 JUNCTION        2.03          1.547        0.000
  CSO10                JUNCTION        0.77          0.560        0.000
  J4                   JUNCTION        2.34          1.245        0.455
  
  
  *********************
  Node Flooding Summary
  *********************
  
  Flooding refers to all water that overflows a node, whether it ponds or not.
  --------------------------------------------------------------------------
                                                             Total   Maximum
                                 Maximum   Time of Max       Flood    Ponded
                        Hours       Rate    Occurrence      Volume     Depth
  Node                 Flooded       CMS   days hr:min    10^6 ltr    Meters
  --------------------------------------------------------------------------
  CSO7                    1.95     0.126      0  08:56       0.213     0.000
  CSO9                    0.16     0.025      0  08:46       0.004     0.000
  CSO8                    1.26     1.055      0  08:51       1.115     0.000
  CSO10                   0.48     0.319      0  07:01       0.184     0.000
  T5                     16.55     0.491      0  07:07       2.988     0.000
  T4                      3.66     0.299      0  08:57       1.233     0.000
  T6                      4.54     0.631      0  07:22       4.100     0.000
  T3                      2.78     1.542      0  08:55       3.883     0.000
  T2                      3.52     1.150      0  08:56       2.694     0.000
  T1                      3.97     0.800      0  07:11       4.479     0.000
  
  
  **********************
  Storage Volume Summary
  **********************
  
  --------------------------------------------------------------------------------------------------
                         Average     Avg  Evap Exfil       Maximum     Max    Time of Max    Maximum
                          Volume    Pcnt  Pcnt  Pcnt        Volume    Pcnt     Occurrence    Outflow
  Storage Unit           1000 m3    Full  Loss  Loss       1000 m3    Full    days hr:min        CMS
  --------------------------------------------------------------------------------------------------
  T5                       0.368      74     0     0         0.500     100       0  07:07      0.000
  T4                       0.290      58     0     0         0.500     100       0  07:49      0.028
  T6                       0.333      55     0     0         0.600     100       0  07:18      0.075
  T3                       1.735      67     0     0         2.600     100       0  08:14      0.176
  T2                       0.626      63     0     0         1.000     100       0  07:42      0.033
  T1                       0.369      53     0     0         0.700     100       0  07:11      0.271
  
  
  ***********************
  Outfall Loading Summary
  ***********************
  
  -----------------------------------------------------------
                         Flow       Avg       Max       Total
                         Freq      Flow      Flow      Volume
  Outfall Node           Pcnt       CMS       CMS    10^6 ltr
  -----------------------------------------------------------
  Out_to_WWTP           99.43     0.171     0.271      14.465
  -----------------------------------------------------------
  System                99.43     0.171     0.271      14.465
  
  
  ********************
  Link Flow Summary
  ********************
  
  -----------------------------------------------------------------------------
                                 Maximum  Time of Max   Maximum    Max/    Max/
                                  |Flow|   Occurrence   |Veloc|    Full    Full
  Link                 Type          CMS  days hr:min     m/sec    Flow   Depth
  -----------------------------------------------------------------------------
  C1                   CONDUIT     0.000     0  00:00      0.00    0.00    0.06
  C6                   CONDUIT     0.073     0  08:57      1.28    1.16    0.82
  C2                   CONDUIT     0.028     0  08:36      1.05    0.03    0.16
  C9                   CONDUIT     0.122     0  08:58      1.28    0.42    0.49
  C16                  CONDUIT     0.492     0  08:46      1.82    0.05    0.17
  C3                   CONDUIT     0.124     0  08:18      2.04    0.05    0.14
  C19                  CONDUIT     0.033     0  08:41      0.64    0.01    0.21
  C11                  CONDUIT     0.152     0  09:12      1.56    0.01    0.11
  C20                  CONDUIT     1.572     0  07:01      4.94    0.05    0.18
  C22                  CONDUIT     0.202     0  07:19      1.69    0.09    0.36
  C12                  CONDUIT     0.075     0  09:25      0.97    0.01    0.29
  C17                  CONDUIT     1.567     0  08:52      3.66    0.08    0.35
  C10                  CONDUIT     0.673     0  08:57      0.93    0.07    0.59
  C13                  CONDUIT     1.665     0  08:55      0.83    0.10    0.76
  C18                  CONDUIT     1.183     0  08:56      1.01    0.04    0.57
  C23                  CONDUIT     1.518     0  07:03      1.27    0.17    0.64
  C4                   CONDUIT     0.728     0  07:01      1.37    0.18    0.64
  C7                   CONDUIT     0.327     0  08:57      0.80    0.08    0.60
  C14                  CONDUIT     0.271     0  07:13      2.08    0.02    0.09
  C5                   CONDUIT     0.082     0  06:51      1.67    1.40    1.00
  C8                   CONDUIT     0.126     0  08:57      1.81    1.59    0.85
  C15                  CONDUIT     0.487     0  09:06      3.55    1.55    0.83
  C21                  CONDUIT     0.202     0  07:19      1.88    1.16    0.69
  V4                   ORIFICE     0.028     0  07:49                      0.35
  V5                   ORIFICE     0.000     0  00:00                      0.00
  V1                   ORIFICE     0.271     0  07:11                      1.00
  V6                   ORIFICE     0.075     0  07:30                      0.43
  V3                   ORIFICE     0.124     0  08:15                      0.65
  V2                   ORIFICE     0.033     0  07:42                      0.24
  
  
  ***************************
  Flow Classification Summary
  ***************************
  
  -------------------------------------------------------------------------------------
                      Adjusted    ---------- Fraction of Time in Flow Class ---------- 
                       /Actual         Up    Down  Sub   Sup   Up    Down  Norm  Inlet 
  Conduit               Length    Dry  Dry   Dry   Crit  Crit  Crit  Crit  Ltd   Ctrl  
  -------------------------------------------------------------------------------------
  C1                      1.00   0.31  0.69  0.00  0.00  0.00  0.00  0.00  0.00  0.00
  C6                      1.00   0.00  0.00  0.00  0.12  0.88  0.00  0.00  0.00  0.00
  C2                      1.00   0.31  0.00  0.00  0.10  0.59  0.00  0.00  0.69  0.00
  C9                      1.00   0.00  0.00  0.00  1.00  0.00  0.00  0.00  1.00  0.00
  C16                     1.00   0.00  0.15  0.00  0.59  0.26  0.00  0.00  0.52  0.00
  C3                      1.00   0.31  0.00  0.00  0.00  0.69  0.00  0.00  0.00  0.00
  C19                     1.00   0.00  0.31  0.00  0.69  0.00  0.00  0.00  0.69  0.00
  C11                     1.00   0.00  0.31  0.00  0.11  0.58  0.00  0.00  0.69  0.00
  C20                     1.00   0.00  0.00  0.00  0.54  0.46  0.00  0.00  0.99  0.00
  C22                     1.00   0.00  0.00  0.00  0.78  0.22  0.00  0.00  1.00  0.00
  C12                     1.00   0.00  0.31  0.00  0.64  0.05  0.00  0.00  0.64  0.00
  C17                     1.00   0.00  0.00  0.00  0.68  0.32  0.00  0.00  0.92  0.00
  C10                     1.00   0.00  0.00  0.00  0.98  0.02  0.00  0.00  0.98  0.00
  C13                     1.00   0.00  0.00  0.00  0.91  0.09  0.00  0.00  0.30  0.00
  C18                     1.00   0.00  0.00  0.00  0.97  0.03  0.00  0.00  0.98  0.00
  C23                     1.00   0.00  0.00  0.00  0.82  0.18  0.00  0.00  0.91  0.00
  C4                      1.00   0.00  0.00  0.00  0.98  0.02  0.00  0.00  0.99  0.00
  C7                      1.00   0.00  0.00  0.00  0.97  0.03  0.00  0.00  0.98  0.00
  C14                     1.00   0.00  0.00  0.00  0.00  1.00  0.00  0.00  0.45  0.00
  C5                      1.00   0.00  0.00  0.00  0.93  0.07  0.00  0.00  0.88  0.00
  C8                      1.00   0.00  0.00  0.00  0.32  0.68  0.00  0.00  0.01  0.00
  C15                     1.00   0.14  0.00  0.00  0.02  0.84  0.00  0.00  0.02  0.00
  C21                     1.00   0.00  0.00  0.00  0.01  0.99  0.00  0.00  0.00  0.00
  
  
  *************************
  Conduit Surcharge Summary
  *************************
  
  ----------------------------------------------------------------------------
                                                           Hours        Hours 
                         --------- Hours Full --------   Above Full   Capacity
  Conduit                Both Ends  Upstream  Dnstream   Normal Flow   Limited
  ----------------------------------------------------------------------------
  C6                          0.01      2.34      0.01      2.11         0.01
  C10                         0.01      0.01     16.17      0.01         0.01
  C13                         0.01      0.01     16.68      0.01         0.01
  C18                         0.01      0.01     16.68      0.01         0.01
  C23                         0.01      0.01     16.77      0.01         0.01
  C4                          0.01      0.01     18.07      0.01         0.01
  C7                          0.01      0.01     17.09      0.01         0.01
  C5                          2.36      2.42      2.59      2.40         2.30
  C8                          0.01      1.26      0.01      1.25         0.01
  C15                         0.01      2.03      0.01      2.16         0.01
  C21                         0.01      0.77      0.01      0.70         0.01
  

  Analysis begun on:  Tue Sep 21 10:49:42 2021
  Analysis ended on:  Tue Sep 21 10:49:42 2021
  Total elapsed time: < 1 sec