
  EPA STORM WATER MANAGEMENT MODEL - VERSION 5.1 (Build 5.3.0.dev0)
  --------------------------------------------------------------

  WARNING 09: time series interval greater than recording interval for Rain Gage RG1
  WARNING 09: time series interval greater than recording interval for Rain Gage RG2
  WARNING 09: time series interval greater than recording interval for Rain Gage RG3
  WARNING 09: time series interval greater than recording interval for Rain Gage RG4
  
  *********************************************************
  NOTE: The summary statistics displayed in this report are
  based on results found at every computational time step,  
  not just on results from each reporting time step.
  *********************************************************
  
  ****************
  Analysis Options
  ****************
  Flow Units ............... CMS
  Process Models:
    Rainfall/Runoff ........ YES
    RDII ................... NO
    Snowmelt ............... NO
    Groundwater ............ NO
    Flow Routing ........... YES
    Ponding Allowed ........ YES
    Water Quality .......... NO
  Infiltration Method ...... HORTON
  Flow Routing Method ...... DYNWAVE
  Surcharge Method ......... EXTRAN
  Starting Date ............ 08/28/2015 00:00:00
  Ending Date .............. 08/28/2015 23:40:00
  Antecedent Dry Days ...... 0.0
  Report Time Step ......... 00:01:00
  Wet Time Step ............ 00:01:00
  Dry Time Step ............ 00:01:00
  Routing Time Step ........ 5.00 sec
  Variable Time Step ....... YES
  Maximum Trials ........... 8
  Number of Threads ........ 1
  Head Tolerance ........... 0.001500 m
  
  
  **************************        Volume         Depth
  Runoff Quantity Continuity     hectare-m            mm
  **************************     ---------       -------
  Total Precipitation ......         2.985        16.563
  Evaporation Loss .........         0.000         0.000
  Infiltration Loss ........         0.000         0.000
  Surface Runoff ...........         2.910        16.147
  Final Storage ............         0.077         0.426
  Continuity Error (%) .....        -0.058
  
  
  **************************        Volume        Volume
  Flow Routing Continuity        hectare-m      10^6 ltr
  **************************     ---------     ---------
  Dry Weather Inflow .......         0.758         7.576
  Wet Weather Inflow .......         2.909        29.092
  Groundwater Inflow .......         0.000         0.000
  RDII Inflow ..............         0.000         0.000
  External Inflow ..........         0.000         0.000
  External Outflow .........         1.861        18.609
  Flooding Loss ............         0.676         6.764
  Evaporation Loss .........         0.000         0.000
  Exfiltration Loss ........         0.000         0.000
  Initial Stored Volume ....         0.000         0.000
  Final Stored Volume ......         0.846         8.457
  Continuity Error (%) .....         7.739
  
  
  *************************
  Highest Continuity Errors
  *************************
  Node T2 (19.29%)
  Node T5 (14.32%)
  Node T4 (12.18%)
  Node T3 (10.19%)
  Node T6 (9.64%)
  
  
  ***************************
  Time-Step Critical Elements
  ***************************
  None
  
  
  ********************************
  Highest Flow Instability Indexes
  ********************************
  Link C15 (2)
  Link C20 (1)
  
  
  *************************
  Routing Time Step Summary
  *************************
  Minimum Time Step           :     0.10 sec
  Average Time Step           :     5.00 sec
  Maximum Time Step           :     5.00 sec
  Percent in Steady State     :     0.00
  Average Iterations per Step :     2.04
  Percent Not Converging      :     0.33
  
  
  ***************************
  Subcatchment Runoff Summary
  ***************************
  
  ------------------------------------------------------------------------------------------------------------------------------
                            Total      Total      Total      Total     Imperv       Perv      Total       Total     Peak  Runoff
                           Precip      Runon       Evap      Infil     Runoff     Runoff     Runoff      Runoff   Runoff   Coeff
  Subcatchment                 mm         mm         mm         mm         mm         mm         mm    10^6 ltr      CMS
  ------------------------------------------------------------------------------------------------------------------------------
  SC01                      15.58       0.00       0.00       0.00      15.33       0.00      15.33        5.06     0.35   0.984
  SC02                      16.92       0.00       0.00       0.00      16.69       0.00      16.69        3.80     0.53   0.986
  SC03                      17.28       0.00       0.00       0.00      16.97       0.00      16.97        3.06     0.15   0.982
  SC04                      16.92       0.00       0.00       0.00      16.48       0.00      16.48        1.14     0.12   0.974
  SC05                      15.58       0.00       0.00       0.00      15.32       0.00      15.32        2.39     0.16   0.983
  SC06                      16.92       0.00       0.00       0.00      16.16       0.00      16.16        5.26     0.20   0.955
  SC07                      16.92       0.00       0.00       0.00      16.48       0.00      16.48        0.78     0.08   0.974
  SC08                      17.28       0.00       0.00       0.00      16.75       0.00      16.75        4.69     0.20   0.969
  SC09                      16.92       0.00       0.00       0.00      16.39       0.00      16.39        1.13     0.06   0.969
  SC010                     15.58       0.00       0.00       0.00      15.27       0.00      15.27        1.79     0.11   0.980
  
  
  ******************
  Node Depth Summary
  ******************
  
  ---------------------------------------------------------------------------------
                                 Average  Maximum  Maximum  Time of Max    Reported
                                   Depth    Depth      HGL   Occurrence   Max Depth
  Node                 Type       Meters   Meters   Meters  days hr:min      Meters
  ---------------------------------------------------------------------------------
  J1                   JUNCTION     0.07     0.13    34.13     0  01:52        0.13
  J3                   JUNCTION     0.10     0.12    18.12     0  21:10        0.12
  CSO7                 JUNCTION     0.10     1.20    35.20     0  02:10        1.20
  J5                   JUNCTION     0.06     0.14    32.14     0  02:13        0.14
  CSO9                 JUNCTION     0.10     0.21    40.21     0  04:02        0.21
  J8                   JUNCTION     0.10     0.17    36.17     0  04:07        0.17
  CSO8                 JUNCTION     0.13     0.27    32.27     0  19:36        0.27
  J10                  JUNCTION     0.10     0.17    29.17     0  19:38        0.17
  J13                  JUNCTION     0.06     0.19    29.19     0  02:11        0.19
  J15                  JUNCTION     0.17     0.23    15.23     0  01:58        0.23
  J16                  JUNCTION     0.07     0.14    30.14     0  01:51        0.14
  CSO10                JUNCTION     0.11     0.28    30.28     0  01:51        0.28
  J12                  JUNCTION     0.41     1.02    27.02     0  19:31        1.02
  J4                   JUNCTION     0.11     1.44    34.44     0  02:11        0.77
  J6                   JUNCTION     0.06     0.07    25.07     0  21:15        0.07
  J2                   JUNCTION     0.00     0.00    25.00     0  00:00        0.00
  J19                  JUNCTION     0.15     0.17     8.17     0  19:12        0.17
  J9                   JUNCTION     0.10     0.11    29.11     0  11:53        0.11
  J14                  JUNCTION     0.13     0.15    20.15     0  19:29        0.15
  J17                  JUNCTION     0.07     0.08    20.08     0  20:05        0.08
  J7                   JUNCTION     0.08     0.14    39.14     0  04:08        0.14
  J11                  JUNCTION     0.10     0.18    31.18     0  19:38        0.18
  J18                  JUNCTION     0.05     0.12    29.12     0  01:53        0.12
  Out_to_WWTP          OUTFALL      0.15     0.17     6.17     0  19:11        0.17
  T5                   STORAGE      4.56     5.00    32.00     0  04:13        5.00
  T4                   STORAGE      3.48     5.00    32.00     0  20:29        5.00
  T6                   STORAGE      4.03     5.00    36.00     0  10:38        5.00
  T3                   STORAGE      3.38     5.00    27.00     0  19:28        5.00
  T2                   STORAGE      3.82     5.00    26.00     0  19:11        5.00
  T1                   STORAGE      3.44     5.00    15.00     0  19:11        5.00
  
  
  *******************
  Node Inflow Summary
  *******************
  
  -------------------------------------------------------------------------------------------------
                                  Maximum  Maximum                  Lateral       Total        Flow
                                  Lateral    Total  Time of Max      Inflow      Inflow     Balance
                                   Inflow   Inflow   Occurrence      Volume      Volume       Error
  Node                 Type           CMS      CMS  days hr:min    10^6 ltr    10^6 ltr     Percent
  -------------------------------------------------------------------------------------------------
  J1                   JUNCTION     0.164    0.164     0  01:51        3.48        3.48      -0.024
  J3                   JUNCTION     0.000    0.152     0  21:31           0          10       0.333
  CSO7                 JUNCTION     0.085    0.085     0  02:11        1.35        1.35       0.024
  J5                   JUNCTION     0.122    0.185     0  02:12        1.39        2.73       0.038
  CSO9                 JUNCTION     0.059    0.059     0  04:01        1.51        1.51       0.038
  J8                   JUNCTION     0.216    0.264     0  04:06        7.09         8.6       0.109
  CSO8                 JUNCTION     0.196    0.196     0  19:36        5.14        5.14       0.026
  J10                  JUNCTION     0.163    0.325     0  19:36         3.8        8.93       0.140
  J13                  JUNCTION     0.536    0.536     0  02:11        4.71        4.71      -0.079
  J15                  JUNCTION     0.000    0.466     0  01:57           0        20.5       0.376
  J16                  JUNCTION     0.352    0.352     0  01:51        6.14        6.14      -0.006
  CSO10                JUNCTION     0.114    0.114     0  01:51        2.06        2.06       0.027
  J12                  JUNCTION     0.000    0.384     0  19:38           0        14.4       6.033
  J4                   JUNCTION     0.000    0.081     0  02:11           0        1.35       0.140
  J6                   JUNCTION     0.000    0.028     0  20:29           0         1.9       0.195
  J2                   JUNCTION     0.000    0.000     0  00:00           0           0       0.000 ltr
  J19                  JUNCTION     0.000    0.271     0  19:11           0        18.6       0.063
  J9                   JUNCTION     0.000    0.075     0  10:38           0        5.47       0.343
  J14                  JUNCTION     0.000    0.124     0  19:28           0        8.11       0.088
  J17                  JUNCTION     0.000    0.033     0  19:11           0        2.36       0.315
  J7                   JUNCTION     0.000    0.057     0  04:02           0        1.51       0.268
  J11                  JUNCTION     0.000    0.194     0  19:36           0        5.14       0.280
  J18                  JUNCTION     0.000    0.109     0  01:51           0        2.06       0.070
  Out_to_WWTP          OUTFALL      0.000    0.271     0  19:13           0        18.6       0.000
  T5                   STORAGE      0.000    0.152     0  01:52           0        3.48      16.718
  T4                   STORAGE      0.000    0.180     0  02:13           0        2.73      13.865
  T6                   STORAGE      0.000    0.256     0  04:07           0        8.59      10.663
  T3                   STORAGE      0.000    0.464     0  19:34           0        13.5      11.351
  T2                   STORAGE      0.000    0.492     0  02:11           0        4.71      23.899
  T1                   STORAGE      0.000    0.443     0  01:58           0        20.4       3.414
  
  
  **********************
  Node Surcharge Summary
  **********************
  
  Surcharging occurs when water rises above the top of the highest conduit.
  ---------------------------------------------------------------------
                                               Max. Height   Min. Depth
                                   Hours       Above Crown    Below Rim
  Node                 Type      Surcharged         Meters       Meters
  ---------------------------------------------------------------------
  CSO7                 JUNCTION        0.31          0.945        0.000
  J4                   JUNCTION        0.26          1.138        0.562
  
  
  *********************
  Node Flooding Summary
  *********************
  
  Flooding refers to all water that overflows a node, whether it ponds or not.
  --------------------------------------------------------------------------
                                                             Total   Maximum
                                 Maximum   Time of Max       Flood    Ponded
                        Hours       Rate    Occurrence      Volume     Depth
  Node                 Flooded       CMS   days hr:min    10^6 ltr    Meters
  --------------------------------------------------------------------------
  CSO7                    0.10     0.014      0  02:11       0.002     0.000
  T5                     19.45     0.103      0  10:37       2.484     0.000
  T4                      1.51     0.020      0  20:29       0.038     0.000
  T6                      7.97     0.165      0  10:47       1.710     0.000
  T3                      3.81     0.340      0  19:34       1.455     0.000
  T2                      2.91     0.109      0  19:37       0.486     0.000
  T1                      2.07     0.118      0  19:49       0.588     0.000
  
  
  **********************
  Storage Volume Summary
  **********************
  
  --------------------------------------------------------------------------------------------------
                         Average     Avg  Evap Exfil       Maximum     Max    Time of Max    Maximum
                          Volume    Pcnt  Pcnt  Pcnt        Volume    Pcnt     Occurrence    Outflow
  Storage Unit           1000 m3    Full  Loss  Loss       1000 m3    Full    days hr:min        CMS
  --------------------------------------------------------------------------------------------------
  T5                       0.456      91     0     0         0.500     100       0  04:13      0.000
  T4                       0.348      70     0     0         0.500     100       0  20:29      0.028
  T6                       0.484      81     0     0         0.600     100       0  10:38      0.075
  T3                       1.759      68     0     0         2.600     100       0  19:28      0.124
  T2                       0.764      76     0     0         1.000     100       0  19:11      0.033
  T1                       0.481      69     0     0         0.700     100       0  19:11      0.271
  
  
  ***********************
  Outfall Loading Summary
  ***********************
  
  -----------------------------------------------------------
                         Flow       Avg       Max       Total
                         Freq      Flow      Flow      Volume
  Outfall Node           Pcnt       CMS       CMS    10^6 ltr
  -----------------------------------------------------------
  Out_to_WWTP           99.65     0.219     0.271      18.609
  -----------------------------------------------------------
  System                99.65     0.219     0.271      18.609
  
  
  ********************
  Link Flow Summary
  ********************
  
  -----------------------------------------------------------------------------
                                 Maximum  Time of Max   Maximum    Max/    Max/
                                  |Flow|   Occurrence   |Veloc|    Full    Full
  Link                 Type          CMS  days hr:min     m/sec    Flow   Depth
  -----------------------------------------------------------------------------
  C1                   CONDUIT     0.000     0  00:00      0.00    0.00    0.06
  C6                   CONDUIT     0.071     0  02:13      1.28    1.12    0.74
  C2                   CONDUIT     0.028     0  21:14      1.09    0.03    0.16
  C9                   CONDUIT     0.052     0  04:08      1.00    0.18    0.31
  C16                  CONDUIT     0.177     0  19:38      1.29    0.02    0.09
  C3                   CONDUIT     0.124     0  19:31      1.89    0.05    0.14
  C19                  CONDUIT     0.033     0  20:05      0.66    0.01    0.14
  C11                  CONDUIT     0.152     0  21:10      1.56    0.01    0.08
  C20                  CONDUIT     0.327     0  01:52      2.49    0.01    0.09
  C22                  CONDUIT     0.103     0  01:53      1.35    0.05    0.21
  C12                  CONDUIT     0.075     0  11:53      1.04    0.01    0.28
  C17                  CONDUIT     0.309     0  19:38      2.01    0.02    0.29
  C10                  CONDUIT     0.256     0  04:07      1.31    0.03    0.56
  C13                  CONDUIT     0.464     0  19:34      1.50    0.03    0.75
  C18                  CONDUIT     0.492     0  02:11      1.80    0.02    0.55
  C23                  CONDUIT     0.443     0  01:58      1.88    0.05    0.58
  C4                   CONDUIT     0.152     0  01:52      1.90    0.04    0.57
  C7                   CONDUIT     0.180     0  02:13      1.30    0.04    0.57
  C14                  CONDUIT     0.271     0  19:13      2.08    0.02    0.09
  C5                   CONDUIT     0.081     0  02:11      1.58    1.38    1.00
  C8                   CONDUIT     0.057     0  04:02      1.29    0.71    0.54
  C15                  CONDUIT     0.194     0  19:36      2.45    0.62    0.49
  C21                  CONDUIT     0.109     0  01:51      1.67    0.62    0.44
  V4                   ORIFICE     0.028     0  20:29                      0.35
  V5                   ORIFICE     0.000     0  00:00                      0.00
  V1                   ORIFICE     0.271     0  19:11                      1.00
  V6                   ORIFICE     0.075     0  10:38                      0.43
  V3                   ORIFICE     0.124     0  19:28                      0.65
  V2                   ORIFICE     0.033     0  19:11                      0.24
  
  
  ***************************
  Flow Classification Summary
  ***************************
  
  -------------------------------------------------------------------------------------
                      Adjusted    ---------- Fraction of Time in Flow Class ---------- 
                       /Actual         Up    Down  Sub   Sup   Up    Down  Norm  Inlet 
  Conduit               Length    Dry  Dry   Dry   Crit  Crit  Crit  Crit  Ltd   Ctrl  
  -------------------------------------------------------------------------------------
  C1                      1.00   0.07  0.93  0.00  0.00  0.00  0.00  0.00  0.00  0.00
  C6                      1.00   0.00  0.00  0.00  0.03  0.97  0.00  0.00  0.00  0.00
  C2                      1.00   0.07  0.00  0.00  0.00  0.93  0.00  0.00  0.92  0.00
  C9                      1.00   0.00  0.00  0.00  1.00  0.00  0.00  0.00  1.00  0.00
  C16                     1.00   0.00  0.00  0.00  0.09  0.91  0.00  0.00  0.08  0.00
  C3                      1.00   0.07  0.00  0.00  0.00  0.93  0.00  0.00  0.00  0.00
  C19                     1.00   0.00  0.07  0.00  0.93  0.00  0.00  0.00  0.93  0.00
  C11                     1.00   0.00  0.07  0.00  0.07  0.86  0.00  0.00  0.93  0.00
  C20                     1.00   0.00  0.00  0.00  0.61  0.39  0.00  0.00  0.99  0.00
  C22                     1.00   0.00  0.00  0.00  0.89  0.11  0.00  0.00  1.00  0.00
  C12                     1.00   0.00  0.07  0.00  0.76  0.17  0.00  0.00  0.93  0.00
  C17                     1.00   0.00  0.00  0.00  0.53  0.47  0.00  0.00  0.97  0.00
  C10                     1.00   0.00  0.00  0.00  0.98  0.02  0.00  0.00  0.99  0.00
  C13                     1.00   0.00  0.00  0.00  0.96  0.04  0.00  0.00  0.44  0.00
  C18                     1.00   0.00  0.00  0.00  0.98  0.02  0.00  0.00  0.99  0.00
  C23                     1.00   0.00  0.00  0.00  0.98  0.02  0.00  0.00  0.99  0.00
  C4                      1.00   0.00  0.00  0.00  0.99  0.01  0.00  0.00  0.99  0.00
  C7                      1.00   0.00  0.00  0.00  0.98  0.02  0.00  0.00  0.99  0.00
  C14                     1.00   0.00  0.00  0.00  0.00  1.00  0.00  0.00  0.31  0.00
  C5                      1.00   0.00  0.00  0.00  0.89  0.11  0.00  0.00  0.97  0.00
  C8                      1.00   0.00  0.00  0.00  0.00  1.00  0.00  0.00  0.00  0.00
  C15                     1.00   0.00  0.00  0.00  0.00  1.00  0.00  0.00  0.00  0.00
  C21                     1.00   0.00  0.00  0.00  0.00  1.00  0.00  0.00  0.00  0.00
  
  
  *************************
  Conduit Surcharge Summary
  *************************
  
  ----------------------------------------------------------------------------
                                                           Hours        Hours 
                         --------- Hours Full --------   Above Full   Capacity
  Conduit                Both Ends  Upstream  Dnstream   Normal Flow   Limited
  ----------------------------------------------------------------------------
  C6                          0.01      0.26      0.01      0.17         0.01
  C10                         0.01      0.01     21.10      0.01         0.01
  C13                         0.01      0.01     18.99      0.01         0.01
  C18                         0.01      0.01     21.49      0.01         0.01
  C23                         0.01      0.01     21.81      0.01         0.01
  C4                          0.01      0.01     22.47      0.01         0.01
  C7                          0.01      0.01     21.77      0.01         0.01
  C5                          0.28      0.31      0.38      0.31         0.25
  

  Analysis begun on:  Tue Sep 21 10:53:31 2021
  Analysis ended on:  Tue Sep 21 10:53:31 2021
  Total elapsed time: < 1 sec