
  EPA STORM WATER MANAGEMENT MODEL - VERSION 5.1 (Build 5.3.0.dev0)
  --------------------------------------------------------------

  WARNING 09: time series interval greater than recording interval for Rain Gage RG1
  WARNING 09: time series interval greater than recording interval for Rain Gage RG2
  WARNING 09: time series interval greater than recording interval for Rain Gage RG3
  WARNING 09: time series interval greater than recording interval for Rain Gage RG4
  
  *********************************************************
  NOTE: The summary statistics displayed in this report are
  based on results found at every computational time step,  
  not just on results from each reporting time step.
  *********************************************************
  
  ****************
  Analysis Options
  ****************
  Flow Units ............... CMS
  Process Models:
    Rainfall/Runoff ........ YES
    RDII ................... NO
    Snowmelt ............... NO
    Groundwater ............ NO
    Flow Routing ........... YES
    Ponding Allowed ........ YES
    Water Quality .......... NO
  Infiltration Method ...... HORTON
  Flow Routing Method ...... DYNWAVE
  Surcharge Method ......... EXTRAN
  Starting Date ............ 08/28/2015 00:00:00
  Ending Date .............. 08/28/2015 23:40:00
  Antecedent Dry Days ...... 0.0
  Report Time Step ......... 00:01:00
  Wet Time Step ............ 00:01:00
  Dry Time Step ............ 00:01:00
  Routing Time Step ........ 5.00 sec
  Variable Time Step ....... YES
  Maximum Trials ........... 8
  Number of Threads ........ 1
  Head Tolerance ........... 0.001500 m
  
  
  **************************        Volume         Depth
  Runoff Quantity Continuity     hectare-m            mm
  **************************     ---------       -------
  Total Precipitation ......         5.851        32.471
  Evaporation Loss .........         0.000         0.000
  Infiltration Loss ........         0.000         0.000
  Surface Runoff ...........         5.806        32.217
  Final Storage ............         0.081         0.449
  Continuity Error (%) .....        -0.600
  
  
  **************************        Volume        Volume
  Flow Routing Continuity        hectare-m      10^6 ltr
  **************************     ---------     ---------
  Dry Weather Inflow .......         0.758         7.576
  Wet Weather Inflow .......         5.805        58.050
  Groundwater Inflow .......         0.000         0.000
  RDII Inflow ..............         0.000         0.000
  External Inflow ..........         0.000         0.000
  External Outflow .........         0.487         4.875
  Flooding Loss ............         4.906        49.057
  Evaporation Loss .........         0.000         0.000
  Exfiltration Loss ........         0.000         0.000
  Initial Stored Volume ....         0.000         0.000
  Final Stored Volume ......         0.869         8.686
  Continuity Error (%) .....         4.585
  
  
  *************************
  Highest Continuity Errors
  *************************
  Node T5 (11.08%)
  Node T3 (9.33%)
  Node T2 (8.59%)
  Node T6 (8.34%)
  Node T4 (8.03%)
  
  
  ***************************
  Time-Step Critical Elements
  ***************************
  None
  
  
  ********************************
  Highest Flow Instability Indexes
  ********************************
  All links are stable.
  
  
  *************************
  Routing Time Step Summary
  *************************
  Minimum Time Step           :     4.50 sec
  Average Time Step           :     5.00 sec
  Maximum Time Step           :     5.00 sec
  Percent in Steady State     :     0.00
  Average Iterations per Step :     2.24
  Percent Not Converging      :     0.71
  
  
  ***************************
  Subcatchment Runoff Summary
  ***************************
  
  ------------------------------------------------------------------------------------------------------------------------------
                            Total      Total      Total      Total     Imperv       Perv      Total       Total     Peak  Runoff
                           Precip      Runon       Evap      Infil     Runoff     Runoff     Runoff      Runoff   Runoff   Coeff
  Subcatchment                 mm         mm         mm         mm         mm         mm         mm    10^6 ltr      CMS
  ------------------------------------------------------------------------------------------------------------------------------
  SC01                      22.00       0.00       0.00       0.00      21.83       0.00      21.83        7.20     3.75   0.992
  SC02                      43.41       0.00       0.00       0.00      43.39       0.00      43.39        9.87     5.91   1.000
  SC03                      47.19       0.00       0.00       0.00      47.63       0.00      47.63        8.57     5.97   1.009
  SC04                      43.41       0.00       0.00       0.00      42.61       0.00      42.61        2.94     0.95   0.982
  SC05                      22.00       0.00       0.00       0.00      21.78       0.00      21.78        3.40     1.65   0.990
  SC06                      21.79       0.00       0.00       0.00      21.10       0.00      21.10        6.87     2.74   0.968
  SC07                      43.41       0.00       0.00       0.00      42.62       0.00      42.62        2.02     0.66   0.982
  SC08                      47.19       0.00       0.00       0.00      46.97       0.00      46.97       13.15     4.75   0.995
  SC09                      21.79       0.00       0.00       0.00      21.46       0.00      21.46        1.48     0.86   0.985
  SC010                     22.00       0.00       0.00       0.00      21.63       0.00      21.63        2.54     1.04   0.983
  
  
  ******************
  Node Depth Summary
  ******************
  
  ---------------------------------------------------------------------------------
                                 Average  Maximum  Maximum  Time of Max    Reported
                                   Depth    Depth      HGL   Occurrence   Max Depth
  Node                 Type       Meters   Meters   Meters  days hr:min      Meters
  ---------------------------------------------------------------------------------
  J1                   JUNCTION     0.06     0.45    34.45     0  19:51        0.45
  J3                   JUNCTION     0.01     0.12    18.12     0  22:49        0.12
  CSO7                 JUNCTION     0.18     1.20    35.20     0  19:45        1.20
  J5                   JUNCTION     0.06     0.37    32.37     0  19:52        0.37
  CSO9                 JUNCTION     0.17     2.00    42.00     0  19:41        2.00
  J8                   JUNCTION     0.08     0.57    36.57     0  19:52        0.57
  CSO8                 JUNCTION     0.24     2.00    34.00     0  19:40        2.00
  J10                  JUNCTION     0.08     0.73    29.73     0  19:46        0.73
  J13                  JUNCTION     0.06     0.61    29.61     0  19:51        0.58
  J15                  JUNCTION     0.08     0.59    15.59     0  22:23        0.59
  J16                  JUNCTION     0.05     0.46    30.46     0  19:51        0.44
  CSO10                JUNCTION     0.12     1.00    31.00     0  19:42        1.00
  J12                  JUNCTION     0.19     1.26    27.26     0  21:04        1.26
  J4                   JUNCTION     0.13     1.47    34.47     0  22:15        0.75
  J6                   JUNCTION     0.00     0.07    25.07     0  23:03        0.07
  J2                   JUNCTION     0.00     0.00    25.00     0  00:00        0.00
  J19                  JUNCTION     0.06     0.17     8.17     0  20:01        0.17
  J9                   JUNCTION     0.01     0.11    29.11     0  23:14        0.11
  J14                  JUNCTION     0.01     0.16    20.16     0  22:11        0.16
  J17                  JUNCTION     0.00     0.08    20.08     0  23:18        0.08
  J7                   JUNCTION     0.06     0.23    39.23     0  20:14        0.23
  J11                  JUNCTION     0.07     0.30    31.30     0  21:48        0.30
  J18                  JUNCTION     0.04     0.16    29.16     0  20:08        0.16
  Out_to_WWTP          OUTFALL      0.06     0.17     6.17     0  23:30        0.17
  T5                   STORAGE      2.48     5.00    32.00     0  19:42        5.00
  T4                   STORAGE      2.22     5.00    32.00     0  19:51        5.00
  T6                   STORAGE      2.93     5.00    36.00     0  14:46        5.00
  T3                   STORAGE      1.27     5.00    27.00     0  20:12        5.00
  T2                   STORAGE      1.53     5.00    26.00     0  19:52        5.00
  T1                   STORAGE      0.85     5.00    15.00     0  20:00        5.00
  
  
  *******************
  Node Inflow Summary
  *******************
  
  -------------------------------------------------------------------------------------------------
                                  Maximum  Maximum                  Lateral       Total        Flow
                                  Lateral    Total  Time of Max      Inflow      Inflow     Balance
                                   Inflow   Inflow   Occurrence      Volume      Volume       Error
  Node                 Type           CMS      CMS  days hr:min    10^6 ltr    10^6 ltr     Percent
  -------------------------------------------------------------------------------------------------
  J1                   JUNCTION     1.669    1.669     0  19:51        4.49        4.49       0.072
  J3                   JUNCTION     0.000    0.152     0  22:13           0       0.853       4.163
  CSO7                 JUNCTION     0.666    0.666     0  19:51        2.59        2.59       0.006
  J5                   JUNCTION     0.956    1.034     0  19:51        3.19        4.54       0.135
  CSO9                 JUNCTION     0.867    0.867     0  19:51        1.86        1.86      -0.011
  J8                   JUNCTION     2.763    2.889     0  19:56         8.7          10       0.123
  CSO8                 JUNCTION     4.746    4.746     0  19:46        13.6        13.6      -0.016
  J10                  JUNCTION     5.976    6.400     0  19:46        9.32        14.8      -0.030
  J13                  JUNCTION     5.924    5.924     0  19:51        10.8        10.8       0.081
  J15                  JUNCTION     0.000    3.800     0  19:51           0        11.3       0.794
  J16                  JUNCTION     3.762    3.762     0  19:51        8.28        8.28      -0.092
  CSO10                JUNCTION     1.043    1.043     0  22:21        2.81        2.81      -0.083
  J12                  JUNCTION     0.000    5.024     0  19:47           0        15.3       5.674
  J4                   JUNCTION     0.000    0.085     0  21:07           0        1.35       0.222
  J6                   JUNCTION     0.000    0.028     0  22:10           0        0.16       2.450
  J2                   JUNCTION     0.000    0.000     0  00:00           0           0       0.000 ltr
  J19                  JUNCTION     0.000    0.271     0  20:00           0        4.89       0.257
  J9                   JUNCTION     0.000    0.075     0  22:10           0       0.429       8.168
  J14                  JUNCTION     0.000    0.124     0  22:10           0       0.704       0.976
  J17                  JUNCTION     0.000    0.033     0  22:10           0       0.189       4.169
  J7                   JUNCTION     0.000    0.127     0  20:14           0         1.3       0.227
  J11                  JUNCTION     0.000    0.487     0  21:47           0        5.47       0.366
  J18                  JUNCTION     0.000    0.202     0  20:08           0        1.99       0.110
  Out_to_WWTP          OUTFALL      0.000    0.271     0  20:01           0        4.87       0.000
  T5                   STORAGE      0.000    1.474     0  19:52           0        4.49      12.464
  T4                   STORAGE      0.000    0.921     0  19:52           0        4.53       8.727
  T6                   STORAGE      0.000    2.692     0  19:57           0        9.99       9.098
  T3                   STORAGE      0.000    3.618     0  19:48           0        14.5      10.285
  T2                   STORAGE      0.000    5.519     0  19:51           0        10.8       9.395
  T1                   STORAGE      0.000    2.678     0  22:24           0        11.2       7.717
  
  
  **********************
  Node Surcharge Summary
  **********************
  
  Surcharging occurs when water rises above the top of the highest conduit.
  ---------------------------------------------------------------------
                                               Max. Height   Min. Depth
                                   Hours       Above Crown    Below Rim
  Node                 Type      Surcharged         Meters       Meters
  ---------------------------------------------------------------------
  CSO7                 JUNCTION        2.60          0.945        0.000
  CSO9                 JUNCTION        1.69          1.682        0.000
  CSO8                 JUNCTION        2.52          1.547        0.000
  CSO10                JUNCTION        1.45          0.560        0.000
  J4                   JUNCTION        2.47          1.171        0.529
  
  
  *********************
  Node Flooding Summary
  *********************
  
  Flooding refers to all water that overflows a node, whether it ponds or not.
  --------------------------------------------------------------------------
                                                             Total   Maximum
                                 Maximum   Time of Max       Flood    Ponded
                        Hours       Rate    Occurrence      Volume     Depth
  Node                 Flooded       CMS   days hr:min    10^6 ltr    Meters
  --------------------------------------------------------------------------
  CSO7                    2.22     0.588      0  19:51       1.237     0.000
  CSO9                    1.08     0.740      0  19:51       0.558     0.000
  CSO8                    2.04     4.261      0  19:46       8.135     0.000
  CSO10                   1.13     0.840      0  22:21       0.826     0.000
  T5                      3.97     1.474      0  19:52       3.490     0.000
  T4                      3.81     0.921      0  19:52       3.508     0.000
  T6                      8.48     2.692      0  19:57       8.134     0.000
  T3                      2.90     3.587      0  21:06       9.696     0.000
  T2                      3.54     4.360      0  21:11       8.660     0.000
  T1                      2.76     2.407      0  22:24       4.812     0.000
  
  
  **********************
  Storage Volume Summary
  **********************
  
  --------------------------------------------------------------------------------------------------
                         Average     Avg  Evap Exfil       Maximum     Max    Time of Max    Maximum
                          Volume    Pcnt  Pcnt  Pcnt        Volume    Pcnt     Occurrence    Outflow
  Storage Unit           1000 m3    Full  Loss  Loss       1000 m3    Full    days hr:min        CMS
  --------------------------------------------------------------------------------------------------
  T5                       0.248      50     0     0         0.500     100       0  19:42      0.000
  T4                       0.222      44     0     0         0.500     100       0  19:51      0.028
  T6                       0.352      59     0     0         0.600     100       0  14:46      0.075
  T3                       0.660      25     0     0         2.600     100       0  20:12      0.758
  T2                       0.306      31     0     0         1.000     100       0  19:52      0.033
  T1                       0.118      17     0     0         0.700     100       0  20:00      0.271
  
  
  ***********************
  Outfall Loading Summary
  ***********************
  
  -----------------------------------------------------------
                         Flow       Avg       Max       Total
                         Freq      Flow      Flow      Volume
  Outfall Node           Pcnt       CMS       CMS    10^6 ltr
  -----------------------------------------------------------
  Out_to_WWTP           99.43     0.058     0.271       4.875
  -----------------------------------------------------------
  System                99.43     0.058     0.271       4.875
  
  
  ********************
  Link Flow Summary
  ********************
  
  -----------------------------------------------------------------------------
                                 Maximum  Time of Max   Maximum    Max/    Max/
                                  |Flow|   Occurrence   |Veloc|    Full    Full
  Link                 Type          CMS  days hr:min     m/sec    Flow   Depth
  -----------------------------------------------------------------------------
  C1                   CONDUIT     0.000     0  00:00      0.00    0.00    0.06
  C6                   CONDUIT     0.078     0  19:50      1.28    1.24    1.00
  C2                   CONDUIT     0.028     0  23:03      1.07    0.03    0.16
  C9                   CONDUIT     0.127     0  20:14      1.26    0.43    0.73
  C16                  CONDUIT     0.486     0  20:10      1.85    0.05    0.25
  C3                   CONDUIT     0.125     0  22:12      2.07    0.05    0.14
  C19                  CONDUIT     0.033     0  23:18      0.62    0.01    0.33
  C11                  CONDUIT     0.152     0  22:49      1.50    0.01    0.18
  C20                  CONDUIT     3.598     0  19:51      6.62    0.11    0.24
  C22                  CONDUIT     0.202     0  20:08      1.78    0.09    0.47
  C12                  CONDUIT     0.075     0  23:14      0.12    0.01    0.32
  C17                  CONDUIT     5.024     0  19:47      6.19    0.25    0.44
  C10                  CONDUIT     2.692     0  19:57      2.09    0.28    0.69
  C13                  CONDUIT     3.618     0  19:48      1.76    0.21    0.82
  C18                  CONDUIT     5.519     0  19:51      2.54    0.21    0.65
  C23                  CONDUIT     2.678     0  22:24      2.68    0.30    0.70
  C4                   CONDUIT     1.474     0  19:52      2.42    0.36    0.73
  C7                   CONDUIT     0.921     0  19:52      1.62    0.23    0.68
  C14                  CONDUIT     0.271     0  20:01      2.08    0.02    0.09
  C5                   CONDUIT     0.085     0  21:07      1.67    1.46    1.00
  C8                   CONDUIT     0.127     0  20:14      2.06    1.60    0.86
  C15                  CONDUIT     0.487     0  21:47      4.06    1.55    0.83
  C21                  CONDUIT     0.202     0  20:08      1.92    1.16    0.69
  V4                   ORIFICE     0.028     0  22:10                      0.35
  V5                   ORIFICE     0.000     0  00:00                      0.00
  V1                   ORIFICE     0.271     0  20:00                      1.00
  V6                   ORIFICE     0.075     0  22:10                      0.43
  V3                   ORIFICE     0.124     0  22:10                      0.65
  V2                   ORIFICE     0.033     0  22:10                      0.24
  
  
  ***************************
  Flow Classification Summary
  ***************************
  
  -------------------------------------------------------------------------------------
                      Adjusted    ---------- Fraction of Time in Flow Class ---------- 
                       /Actual         Up    Down  Sub   Sup   Up    Down  Norm  Inlet 
  Conduit               Length    Dry  Dry   Dry   Crit  Crit  Crit  Crit  Ltd   Ctrl  
  -------------------------------------------------------------------------------------
  C1                      1.00   0.93  0.07  0.00  0.00  0.00  0.00  0.00  0.00  0.00
  C6                      1.00   0.00  0.00  0.00  0.13  0.87  0.00  0.00  0.00  0.00
  C2                      1.00   0.93  0.00  0.00  0.00  0.07  0.00  0.00  0.07  0.00
  C9                      1.00   0.00  0.00  0.00  1.00  0.00  0.00  0.00  1.00  0.00
  C16                     1.00   0.00  0.25  0.00  0.62  0.13  0.00  0.00  0.53  0.00
  C3                      1.00   0.93  0.00  0.00  0.00  0.07  0.00  0.00  0.00  0.00
  C19                     1.00   0.00  0.93  0.00  0.07  0.00  0.00  0.00  0.07  0.00
  C11                     1.00   0.00  0.93  0.00  0.04  0.03  0.00  0.00  0.07  0.00
  C20                     1.00   0.00  0.00  0.00  0.03  0.97  0.00  0.00  0.98  0.00
  C22                     1.00   0.00  0.00  0.00  0.89  0.11  0.00  0.00  1.00  0.00
  C12                     1.00   0.00  0.93  0.00  0.07  0.00  0.00  0.00  0.07  0.00
  C17                     1.00   0.00  0.00  0.00  0.15  0.85  0.00  0.00  0.94  0.00
  C10                     1.00   0.00  0.00  0.00  0.98  0.02  0.00  0.00  0.98  0.00
  C13                     1.00   0.00  0.00  0.00  0.93  0.07  0.00  0.00  0.78  0.00
  C18                     1.00   0.00  0.00  0.00  0.97  0.03  0.00  0.00  0.98  0.00
  C23                     1.00   0.00  0.00  0.00  0.20  0.80  0.00  0.00  0.91  0.00
  C4                      1.00   0.00  0.00  0.00  0.98  0.02  0.00  0.00  0.98  0.00
  C7                      1.00   0.00  0.00  0.00  0.97  0.03  0.00  0.00  0.97  0.00
  C14                     1.00   0.00  0.00  0.00  0.00  1.00  0.00  0.00  0.35  0.00
  C5                      1.00   0.00  0.00  0.00  0.95  0.05  0.00  0.00  0.87  0.00
  C8                      1.00   0.00  0.00  0.00  0.21  0.79  0.00  0.00  0.00  0.00
  C15                     1.00   0.25  0.03  0.00  0.03  0.68  0.00  0.00  0.06  0.00
  C21                     1.00   0.00  0.00  0.00  0.01  0.99  0.00  0.00  0.00  0.00
  
  
  *************************
  Conduit Surcharge Summary
  *************************
  
  ----------------------------------------------------------------------------
                                                           Hours        Hours 
                         --------- Hours Full --------   Above Full   Capacity
  Conduit                Both Ends  Upstream  Dnstream   Normal Flow   Limited
  ----------------------------------------------------------------------------
  C6                          0.11      2.47      0.11      2.26         0.11
  C9                          0.01      0.01      0.11      0.01         0.01
  C10                         0.01      0.01     15.44      0.01         0.01
  C13                         0.01      0.01      3.85      0.01         0.01
  C18                         0.01      0.01      4.09      0.01         0.01
  C23                         0.01      0.01      3.80      0.01         0.01
  C4                          0.01      0.01     15.77      0.01         0.01
  C7                          0.01      0.01     15.10      0.01         0.01
  C5                          2.53      2.60      2.78      2.55         2.42
  C8                          0.01      1.69      0.01      1.74         0.01
  C15                         0.01      2.52      0.01      2.57         0.01
  C21                         0.01      1.45      0.01      1.36         0.01
  

  Analysis begun on:  Tue Sep 21 10:54:29 2021
  Analysis ended on:  Tue Sep 21 10:54:29 2021
  Total elapsed time: < 1 sec