
  EPA STORM WATER MANAGEMENT MODEL - VERSION 5.1 (Build 5.3.0.dev0)
  --------------------------------------------------------------

  WARNING 09: time series interval greater than recording interval for Rain Gage RG1
  WARNING 09: time series interval greater than recording interval for Rain Gage RG2
  WARNING 09: time series interval greater than recording interval for Rain Gage RG3
  WARNING 09: time series interval greater than recording interval for Rain Gage RG4
  
  *********************************************************
  NOTE: The summary statistics displayed in this report are
  based on results found at every computational time step,  
  not just on results from each reporting time step.
  *********************************************************
  
  ****************
  Analysis Options
  ****************
  Flow Units ............... CMS
  Process Models:
    Rainfall/Runoff ........ YES
    RDII ................... NO
    Snowmelt ............... NO
    Groundwater ............ NO
    Flow Routing ........... YES
    Ponding Allowed ........ YES
    Water Quality .......... NO
  Infiltration Method ...... HORTON
  Flow Routing Method ...... DYNWAVE
  Surcharge Method ......... EXTRAN
  Starting Date ............ 08/28/2015 00:00:00
  Ending Date .............. 08/28/2015 23:40:00
  Antecedent Dry Days ...... 0.0
  Report Time Step ......... 00:01:00
  Wet Time Step ............ 00:01:00
  Dry Time Step ............ 00:01:00
  Routing Time Step ........ 5.00 sec
  Variable Time Step ....... YES
  Maximum Trials ........... 8
  Number of Threads ........ 1
  Head Tolerance ........... 0.001500 m
  
  
  **************************        Volume         Depth
  Runoff Quantity Continuity     hectare-m            mm
  **************************     ---------       -------
  Total Precipitation ......         2.242        12.440
  Evaporation Loss .........         0.000         0.000
  Infiltration Loss ........         0.000         0.000
  Surface Runoff ...........         2.217        12.304
  Final Storage ............         0.030         0.166
  Continuity Error (%) .....        -0.234
  
  
  **************************        Volume        Volume
  Flow Routing Continuity        hectare-m      10^6 ltr
  **************************     ---------     ---------
  Dry Weather Inflow .......         0.758         7.576
  Wet Weather Inflow .......         2.217        22.171
  Groundwater Inflow .......         0.000         0.000
  RDII Inflow ..............         0.000         0.000
  External Inflow ..........         0.000         0.000
  External Outflow .........         1.356        13.560
  Flooding Loss ............         0.776         7.759
  Evaporation Loss .........         0.000         0.000
  Exfiltration Loss ........         0.000         0.000
  Initial Stored Volume ....         0.000         0.000
  Final Stored Volume ......         0.646         6.456
  Continuity Error (%) .....         6.628
  
  
  *************************
  Highest Continuity Errors
  *************************
  Node T2 (20.77%)
  Node T5 (14.15%)
  Node T3 (12.24%)
  Node T6 (9.34%)
  Node T4 (9.08%)
  
  
  ***************************
  Time-Step Critical Elements
  ***************************
  None
  
  
  ********************************
  Highest Flow Instability Indexes
  ********************************
  Link C13 (1)
  
  
  *************************
  Routing Time Step Summary
  *************************
  Minimum Time Step           :     4.50 sec
  Average Time Step           :     5.00 sec
  Maximum Time Step           :     5.00 sec
  Percent in Steady State     :     0.00
  Average Iterations per Step :     2.08
  Percent Not Converging      :     0.27
  
  
  ***************************
  Subcatchment Runoff Summary
  ***************************
  
  ------------------------------------------------------------------------------------------------------------------------------
                            Total      Total      Total      Total     Imperv       Perv      Total       Total     Peak  Runoff
                           Precip      Runon       Evap      Infil     Runoff     Runoff     Runoff      Runoff   Runoff   Coeff
  Subcatchment                 mm         mm         mm         mm         mm         mm         mm    10^6 ltr      CMS
  ------------------------------------------------------------------------------------------------------------------------------
  SC01                      15.59       0.00       0.00       0.00      15.53       0.00      15.53        5.13     3.44   0.996
  SC02                      10.00       0.00       0.00       0.00       9.91       0.00       9.91        2.26     0.59   0.991
  SC03                      10.09       0.00       0.00       0.00      10.05       0.00      10.05        1.81     0.43   0.996
  SC04                      10.00       0.00       0.00       0.00       9.82       0.00       9.82        0.68     0.11   0.982
  SC05                      15.59       0.00       0.00       0.00      15.51       0.00      15.51        2.42     1.51   0.995
  SC06                      12.49       0.00       0.00       0.00      12.13       0.00      12.13        3.95     0.33   0.971
  SC07                      10.00       0.00       0.00       0.00       9.82       0.00       9.82        0.47     0.07   0.982
  SC08                      10.09       0.00       0.00       0.00      10.01       0.00      10.01        2.80     0.37   0.992
  SC09                      12.49       0.00       0.00       0.00      12.29       0.00      12.29        0.85     0.11   0.984
  SC010                     15.59       0.00       0.00       0.00      15.46       0.00      15.46        1.82     0.93   0.991
  
  
  ******************
  Node Depth Summary
  ******************
  
  ---------------------------------------------------------------------------------
                                 Average  Maximum  Maximum  Time of Max    Reported
                                   Depth    Depth      HGL   Occurrence   Max Depth
  Node                 Type       Meters   Meters   Meters  days hr:min      Meters
  ---------------------------------------------------------------------------------
  J1                   JUNCTION     0.06     0.41    34.41     0  20:36        0.41
  J3                   JUNCTION     0.07     0.12    18.12     0  13:05        0.12
  CSO7                 JUNCTION     0.08     1.20    35.20     0  10:21        1.20
  J5                   JUNCTION     0.05     0.14    32.14     0  10:28        0.14
  CSO9                 JUNCTION     0.09     1.68    41.68     0  20:31        1.65
  J8                   JUNCTION     0.09     0.21    36.21     0  20:34        0.21
  CSO8                 JUNCTION     0.09     2.00    34.00     0  10:16        0.82
  J10                  JUNCTION     0.07     0.24    29.24     0  10:21        0.24
  J13                  JUNCTION     0.05     0.20    29.20     0  10:26        0.20
  J15                  JUNCTION     0.13     0.54    15.54     0  20:38        0.54
  J16                  JUNCTION     0.05     0.44    30.44     0  20:36        0.42
  CSO10                JUNCTION     0.10     1.00    31.00     0  10:26        1.00
  J12                  JUNCTION     0.36     0.88    26.88     0  13:07        0.88
  J4                   JUNCTION     0.09     1.44    34.44     0  10:27        0.75
  J6                   JUNCTION     0.04     0.07    25.07     0  11:35        0.07
  J2                   JUNCTION     0.00     0.00    25.00     0  00:00        0.00
  J19                  JUNCTION     0.12     0.17     8.17     0  20:41        0.17
  J9                   JUNCTION     0.06     0.11    29.11     0  10:39        0.11
  J14                  JUNCTION     0.09     0.15    20.15     0  13:03        0.15
  J17                  JUNCTION     0.04     0.08    20.08     0  11:57        0.08
  J7                   JUNCTION     0.07     0.19    39.19     0  20:34        0.19
  J11                  JUNCTION     0.07     0.24    31.24     0  10:22        0.24
  J18                  JUNCTION     0.04     0.16    29.16     0  20:51        0.16
  Out_to_WWTP          OUTFALL      0.12     0.17     6.17     0  21:40        0.17
  T5                   STORAGE      3.41     5.00    32.00     0  09:46        5.00
  T4                   STORAGE      2.80     5.00    32.00     0  10:47        5.00
  T6                   STORAGE      3.28     5.00    36.00     0  08:14        5.00
  T3                   STORAGE      2.96     4.88    26.88     0  13:02        4.88
  T2                   STORAGE      2.92     5.00    26.00     0  11:03        5.00
  T1                   STORAGE      2.48     5.00    15.00     0  10:44        5.00
  
  
  *******************
  Node Inflow Summary
  *******************
  
  -------------------------------------------------------------------------------------------------
                                  Maximum  Maximum                  Lateral       Total        Flow
                                  Lateral    Total  Time of Max      Inflow      Inflow     Balance
                                   Inflow   Inflow   Occurrence      Volume      Volume       Error
  Node                 Type           CMS      CMS  days hr:min    10^6 ltr    10^6 ltr     Percent
  -------------------------------------------------------------------------------------------------
  J1                   JUNCTION     1.521    1.521     0  20:36        3.51        3.51       0.025
  J3                   JUNCTION     0.000    0.150     0  13:03           0        7.39       0.416
  CSO7                 JUNCTION     0.085    0.085     0  10:26        1.03        1.03       0.021
  J5                   JUNCTION     0.113    0.173     0  10:27       0.926        1.96       0.012
  CSO9                 JUNCTION     0.110    0.110     0  20:31        1.23        1.23       0.006
  J8                   JUNCTION     0.351    0.419     0  20:31        5.78        7.01       0.052
  CSO8                 JUNCTION     0.381    0.381     0  10:16        3.25        3.25      -0.022
  J10                  JUNCTION     0.440    0.621     0  10:21        2.56        5.81      -0.123
  J13                  JUNCTION     0.605    0.605     0  10:21        3.16        3.16      -0.118
  J15                  JUNCTION     0.000    3.651     0  20:36           0          17       0.423
  J16                  JUNCTION     3.452    3.452     0  20:36         6.2         6.2      -0.106
  CSO10                JUNCTION     0.932    0.932     0  20:36        2.09        2.09      -0.063
  J12                  JUNCTION     0.000    0.671     0  10:22           0         9.5       0.551
  J4                   JUNCTION     0.000    0.081     0  10:26           0        1.03       0.068
  J6                   JUNCTION     0.000    0.028     0  10:47           0        1.31       0.216
  J2                   JUNCTION     0.000    0.000     0  00:00           0           0       0.000 ltr
  J19                  JUNCTION     0.000    0.271     0  10:44           0        13.6       0.082
  J9                   JUNCTION     0.000    0.075     0  09:10           0        3.65       0.510
  J14                  JUNCTION     0.000    0.122     0  13:02           0        6.09       0.105
  J17                  JUNCTION     0.000    0.033     0  11:03           0         1.6       0.413
  J7                   JUNCTION     0.000    0.110     0  20:31           0        1.23       0.147
  J11                  JUNCTION     0.000    0.376     0  10:16           0        3.25       0.058
  J18                  JUNCTION     0.000    0.202     0  20:51           0        1.81       0.015
  Out_to_WWTP          OUTFALL      0.000    0.271     0  20:41           0        13.6       0.000
  T5                   STORAGE      0.000    1.370     0  20:36           0        3.51      16.482
  T4                   STORAGE      0.000    0.170     0  10:28           0        1.96       9.987
  T6                   STORAGE      0.000    0.403     0  20:34           0        7.01      10.307
  T3                   STORAGE      0.000    0.625     0  10:24           0        9.45      13.951
  T2                   STORAGE      0.000    0.536     0  10:26           0        3.17      26.220
  T1                   STORAGE      0.000    2.547     0  20:39           0        16.9       3.570
  
  
  **********************
  Node Surcharge Summary
  **********************
  
  Surcharging occurs when water rises above the top of the highest conduit.
  ---------------------------------------------------------------------
                                               Max. Height   Min. Depth
                                   Hours       Above Crown    Below Rim
  Node                 Type      Surcharged         Meters       Meters
  ---------------------------------------------------------------------
  CSO7                 JUNCTION        0.34          0.945        0.000
  CSO9                 JUNCTION        0.18          1.362        0.320
  CSO8                 JUNCTION        0.06          1.547        0.000
  CSO10                JUNCTION        0.45          0.560        0.000
  J4                   JUNCTION        0.29          1.143        0.557
  
  
  *********************
  Node Flooding Summary
  *********************
  
  Flooding refers to all water that overflows a node, whether it ponds or not.
  --------------------------------------------------------------------------
                                                             Total   Maximum
                                 Maximum   Time of Max       Flood    Ponded
                        Hours       Rate    Occurrence      Volume     Depth
  Node                 Flooded       CMS   days hr:min    10^6 ltr    Meters
  --------------------------------------------------------------------------
  CSO7                    0.10     0.013      0  10:27       0.001     0.000
  CSO8                    0.01     0.059      0  10:16       0.000     0.000
  CSO10                   0.34     0.730      0  20:36       0.281     0.000
  T5                     13.89     1.369      0  20:36       2.516     0.000
  T4                      2.24     0.098      0  10:47       0.233     0.000
  T6                      5.26     0.280      0  09:02       2.242     0.000
  T2                      1.72     0.105      0  11:03       0.228     0.000
  T1                      2.59     2.163      0  20:40       2.258     0.000
  
  
  **********************
  Storage Volume Summary
  **********************
  
  --------------------------------------------------------------------------------------------------
                         Average     Avg  Evap Exfil       Maximum     Max    Time of Max    Maximum
                          Volume    Pcnt  Pcnt  Pcnt        Volume    Pcnt     Occurrence    Outflow
  Storage Unit           1000 m3    Full  Loss  Loss       1000 m3    Full    days hr:min        CMS
  --------------------------------------------------------------------------------------------------
  T5                       0.341      68     0     0         0.500     100       0  09:46      0.000
  T4                       0.280      56     0     0         0.500     100       0  10:47      0.028
  T6                       0.394      66     0     0         0.600     100       0  08:14      0.075
  T3                       1.540      59     0     0         2.540      98       0  13:02      0.181
  T2                       0.584      58     0     0         1.000     100       0  11:03      0.033
  T1                       0.347      50     0     0         0.700     100       0  10:44      0.271
  
  
  ***********************
  Outfall Loading Summary
  ***********************
  
  -----------------------------------------------------------
                         Flow       Avg       Max       Total
                         Freq      Flow      Flow      Volume
  Outfall Node           Pcnt       CMS       CMS    10^6 ltr
  -----------------------------------------------------------
  Out_to_WWTP           99.43     0.160     0.271      13.560
  -----------------------------------------------------------
  System                99.43     0.160     0.271      13.560
  
  
  ********************
  Link Flow Summary
  ********************
  
  -----------------------------------------------------------------------------
                                 Maximum  Time of Max   Maximum    Max/    Max/
                                  |Flow|   Occurrence   |Veloc|    Full    Full
  Link                 Type          CMS  days hr:min     m/sec    Flow   Depth
  -----------------------------------------------------------------------------
  C1                   CONDUIT     0.000     0  00:00      0.00    0.00    0.06
  C6                   CONDUIT     0.070     0  10:28      1.28    1.12    0.73
  C2                   CONDUIT     0.028     0  11:34      1.09    0.03    0.16
  C9                   CONDUIT     0.090     0  20:34      1.23    0.31    0.40
  C16                  CONDUIT     0.319     0  10:23      1.53    0.03    0.12
  C3                   CONDUIT     0.122     0  13:03      1.90    0.05    0.14
  C19                  CONDUIT     0.033     0  11:57      0.65    0.01    0.31
  C11                  CONDUIT     0.150     0  13:05      1.55    0.01    0.17
  C20                  CONDUIT     3.286     0  20:36      6.33    0.10    0.23
  C22                  CONDUIT     0.202     0  20:51      1.51    0.09    0.44
  C12                  CONDUIT     0.075     0  10:35      1.00    0.01    0.25
  C17                  CONDUIT     0.596     0  10:22      2.87    0.03    0.24
  C10                  CONDUIT     0.403     0  20:34      0.93    0.04    0.57
  C13                  CONDUIT     0.625     0  10:24      1.06    0.04    0.72
  C18                  CONDUIT     0.536     0  10:26      1.01    0.02    0.55
  C23                  CONDUIT     2.547     0  20:39      1.99    0.28    0.68
  C4                   CONDUIT     1.370     0  20:36      2.31    0.33    0.71
  C7                   CONDUIT     0.170     0  10:28      0.80    0.04    0.57
  C14                  CONDUIT     0.271     0  20:41      2.08    0.02    0.09
  C5                   CONDUIT     0.081     0  10:26      1.65    1.39    1.00
  C8                   CONDUIT     0.110     0  20:31      1.74    1.39    0.80
  C15                  CONDUIT     0.376     0  10:16      3.19    1.19    0.76
  C21                  CONDUIT     0.202     0  20:51      2.06    1.16    0.69
  V4                   ORIFICE     0.028     0  10:47                      0.35
  V5                   ORIFICE     0.000     0  00:00                      0.00
  V1                   ORIFICE     0.271     0  10:44                      1.00
  V6                   ORIFICE     0.075     0  09:10                      0.43
  V3                   ORIFICE     0.122     0  13:02                      0.65
  V2                   ORIFICE     0.033     0  11:03                      0.24
  
  
  ***************************
  Flow Classification Summary
  ***************************
  
  -------------------------------------------------------------------------------------
                      Adjusted    ---------- Fraction of Time in Flow Class ---------- 
                       /Actual         Up    Down  Sub   Sup   Up    Down  Norm  Inlet 
  Conduit               Length    Dry  Dry   Dry   Crit  Crit  Crit  Crit  Ltd   Ctrl  
  -------------------------------------------------------------------------------------
  C1                      1.00   0.38  0.62  0.00  0.00  0.00  0.00  0.00  0.00  0.00
  C6                      1.00   0.00  0.00  0.00  0.03  0.97  0.00  0.00  0.00  0.00
  C2                      1.00   0.38  0.00  0.00  0.05  0.57  0.00  0.00  0.61  0.00
  C9                      1.00   0.00  0.00  0.00  0.99  0.01  0.00  0.00  1.00  0.00
  C16                     1.00   0.00  0.09  0.00  0.59  0.32  0.00  0.00  0.40  0.00
  C3                      1.00   0.38  0.00  0.00  0.00  0.62  0.00  0.00  0.00  0.00
  C19                     1.00   0.00  0.38  0.00  0.62  0.00  0.00  0.00  0.62  0.00
  C11                     1.00   0.00  0.38  0.00  0.08  0.54  0.00  0.00  0.62  0.00
  C20                     1.00   0.00  0.00  0.00  0.48  0.52  0.00  0.00  0.99  0.00
  C22                     1.00   0.00  0.00  0.00  0.80  0.19  0.00  0.00  1.00  0.00
  C12                     1.00   0.00  0.38  0.00  0.60  0.02  0.00  0.00  0.62  0.00
  C17                     1.00   0.00  0.00  0.00  0.54  0.46  0.00  0.00  0.93  0.00
  C10                     1.00   0.00  0.00  0.00  0.98  0.02  0.00  0.00  0.98  0.00
  C13                     1.00   0.00  0.00  0.00  0.90  0.10  0.00  0.00  0.38  0.00
  C18                     1.00   0.00  0.00  0.00  0.97  0.03  0.00  0.00  0.98  0.00
  C23                     1.00   0.00  0.00  0.00  0.75  0.25  0.00  0.00  0.93  0.00
  C4                      1.00   0.00  0.00  0.00  0.98  0.02  0.00  0.00  0.99  0.00
  C7                      1.00   0.00  0.00  0.00  0.97  0.03  0.00  0.00  0.98  0.00
  C14                     1.00   0.00  0.00  0.00  0.00  1.00  0.00  0.00  0.43  0.00
  C5                      1.00   0.00  0.00  0.00  0.92  0.08  0.00  0.00  0.96  0.00
  C8                      1.00   0.00  0.00  0.00  0.11  0.89  0.00  0.00  0.00  0.00
  C15                     1.00   0.09  0.00  0.00  0.01  0.90  0.00  0.00  0.01  0.00
  C21                     1.00   0.00  0.00  0.00  0.00  1.00  0.00  0.00  0.00  0.00
  
  
  *************************
  Conduit Surcharge Summary
  *************************
  
  ----------------------------------------------------------------------------
                                                           Hours        Hours 
                         --------- Hours Full --------   Above Full   Capacity
  Conduit                Both Ends  Upstream  Dnstream   Normal Flow   Limited
  ----------------------------------------------------------------------------
  C6                          0.01      0.29      0.01      0.13         0.01
  C10                         0.01      0.01     18.78      0.01         0.01
  C13                         0.01      0.01     15.35      0.01         0.01
  C18                         0.01      0.01     15.71      0.01         0.01
  C23                         0.01      0.01     14.61      0.01         0.01
  C4                          0.01      0.01     17.82      0.01         0.01
  C7                          0.01      0.01     17.92      0.01         0.01
  C5                          0.27      0.34      0.40      0.30         0.21
  C8                          0.01      0.18      0.01      0.17         0.01
  C15                         0.01      0.06      0.01      0.13         0.01
  C21                         0.01      0.45      0.01      0.42         0.01
  

  Analysis begun on:  Tue Sep 21 11:00:09 2021
  Analysis ended on:  Tue Sep 21 11:00:09 2021
  Total elapsed time: < 1 sec