
  EPA STORM WATER MANAGEMENT MODEL - VERSION 5.1 (Build 5.3.0.dev0)
  --------------------------------------------------------------

  WARNING 09: time series interval greater than recording interval for Rain Gage RG1
  WARNING 09: time series interval greater than recording interval for Rain Gage RG2
  WARNING 09: time series interval greater than recording interval for Rain Gage RG3
  WARNING 09: time series interval greater than recording interval for Rain Gage RG4
  
  *********************************************************
  NOTE: The summary statistics displayed in this report are
  based on results found at every computational time step,  
  not just on results from each reporting time step.
  *********************************************************
  
  ****************
  Analysis Options
  ****************
  Flow Units ............... CMS
  Process Models:
    Rainfall/Runoff ........ YES
    RDII ................... NO
    Snowmelt ............... NO
    Groundwater ............ NO
    Flow Routing ........... YES
    Ponding Allowed ........ YES
    Water Quality .......... NO
  Infiltration Method ...... HORTON
  Flow Routing Method ...... DYNWAVE
  Surcharge Method ......... EXTRAN
  Starting Date ............ 08/28/2015 00:00:00
  Ending Date .............. 08/28/2015 23:40:00
  Antecedent Dry Days ...... 0.0
  Report Time Step ......... 00:01:00
  Wet Time Step ............ 00:01:00
  Dry Time Step ............ 00:01:00
  Routing Time Step ........ 5.00 sec
  Variable Time Step ....... YES
  Maximum Trials ........... 8
  Number of Threads ........ 1
  Head Tolerance ........... 0.001500 m
  
  
  **************************        Volume         Depth
  Runoff Quantity Continuity     hectare-m            mm
  **************************     ---------       -------
  Total Precipitation ......         4.085        22.667
  Evaporation Loss .........         0.000         0.000
  Infiltration Loss ........         0.000         0.000
  Surface Runoff ...........         4.049        22.470
  Final Storage ............         0.039         0.216
  Continuity Error (%) .....        -0.081
  
  
  **************************        Volume        Volume
  Flow Routing Continuity        hectare-m      10^6 ltr
  **************************     ---------     ---------
  Dry Weather Inflow .......         0.758         7.576
  Wet Weather Inflow .......         4.049        40.490
  Groundwater Inflow .......         0.000         0.000
  RDII Inflow ..............         0.000         0.000
  External Inflow ..........         0.000         0.000
  External Outflow .........         1.795        17.952
  Flooding Loss ............         2.059        20.595
  Evaporation Loss .........         0.000         0.000
  Exfiltration Loss ........         0.000         0.000
  Initial Stored Volume ....         0.000         0.000
  Final Stored Volume ......         0.739         7.391
  Continuity Error (%) .....         4.426
  
  
  *************************
  Highest Continuity Errors
  *************************
  Node T2 (11.29%)
  Node T5 (10.86%)
  Node T3 (8.36%)
  Node T4 (5.76%)
  Node T6 (5.66%)
  
  
  ***************************
  Time-Step Critical Elements
  ***************************
  None
  
  
  ********************************
  Highest Flow Instability Indexes
  ********************************
  Link C5 (1)
  Link C15 (1)
  Link C20 (1)
  Link C18 (1)
  Link C21 (1)
  
  
  *************************
  Routing Time Step Summary
  *************************
  Minimum Time Step           :     2.57 sec
  Average Time Step           :     5.00 sec
  Maximum Time Step           :     5.00 sec
  Percent in Steady State     :     0.00
  Average Iterations per Step :     2.43
  Percent Not Converging      :     2.85
  
  
  ***************************
  Subcatchment Runoff Summary
  ***************************
  
  ------------------------------------------------------------------------------------------------------------------------------
                            Total      Total      Total      Total     Imperv       Perv      Total       Total     Peak  Runoff
                           Precip      Runon       Evap      Infil     Runoff     Runoff     Runoff      Runoff   Runoff   Coeff
  Subcatchment                 mm         mm         mm         mm         mm         mm         mm    10^6 ltr      CMS
  ------------------------------------------------------------------------------------------------------------------------------
  SC01                      22.43       0.00       0.00       0.00      22.32       0.00      22.32        7.37     0.63   0.995
  SC02                      27.23       0.00       0.00       0.00      27.09       0.00      27.09        6.16     0.45   0.995
  SC03                      22.48       0.00       0.00       0.00      22.41       0.00      22.41        4.03     0.45   0.997
  SC04                      27.23       0.00       0.00       0.00      26.92       0.00      26.92        1.86     0.12   0.989
  SC05                      22.43       0.00       0.00       0.00      22.31       0.00      22.31        3.48     0.29   0.995
  SC06                      19.27       0.00       0.00       0.00      18.87       0.00      18.87        6.14     0.58   0.979
  SC07                      27.23       0.00       0.00       0.00      26.93       0.00      26.93        1.28     0.08   0.989
  SC08                      22.48       0.00       0.00       0.00      22.29       0.00      22.29        6.24     0.58   0.991
  SC09                      19.27       0.00       0.00       0.00      19.01       0.00      19.01        1.31     0.14   0.987
  SC010                     22.43       0.00       0.00       0.00      22.27       0.00      22.27        2.62     0.21   0.993
  
  
  ******************
  Node Depth Summary
  ******************
  
  ---------------------------------------------------------------------------------
                                 Average  Maximum  Maximum  Time of Max    Reported
                                   Depth    Depth      HGL   Occurrence   Max Depth
  Node                 Type       Meters   Meters   Meters  days hr:min      Meters
  ---------------------------------------------------------------------------------
  J1                   JUNCTION     0.07     0.18    34.18     0  07:46        0.18
  J3                   JUNCTION     0.10     0.12    18.12     0  08:54        0.12
  CSO7                 JUNCTION     0.18     1.20    35.20     0  04:55        1.20
  J5                   JUNCTION     0.06     0.15    32.15     0  07:47        0.15
  CSO9                 JUNCTION     0.14     2.00    42.00     0  07:30        2.00
  J8                   JUNCTION     0.10     0.27    36.27     0  07:52        0.27
  CSO8                 JUNCTION     0.20     2.00    34.00     0  04:46        2.00
  J10                  JUNCTION     0.09     0.28    29.28     0  07:47        0.28
  J13                  JUNCTION     0.07     0.17    29.17     0  08:31        0.17
  J15                  JUNCTION     0.17     0.32    15.32     0  07:48        0.32
  J16                  JUNCTION     0.07     0.19    30.19     0  07:46        0.19
  CSO10                JUNCTION     0.13     1.00    31.00     0  07:36        0.96
  J12                  JUNCTION     0.68     1.04    27.04     0  07:52        1.04
  J4                   JUNCTION     0.16     1.26    34.26     0  04:55        0.84
  J6                   JUNCTION     0.06     0.07    25.07     0  07:16        0.07
  J2                   JUNCTION     0.00     0.00    25.00     0  00:00        0.00
  J19                  JUNCTION     0.14     0.17     8.17     0  06:31        0.17
  J9                   JUNCTION     0.09     0.11    29.11     0  07:45        0.11
  J14                  JUNCTION     0.12     0.15    20.15     0  07:52        0.15
  J17                  JUNCTION     0.06     0.08    20.08     0  07:23        0.08
  J7                   JUNCTION     0.08     0.23    39.23     0  07:53        0.23
  J11                  JUNCTION     0.10     0.30    31.30     0  08:33        0.30
  J18                  JUNCTION     0.06     0.16    29.16     0  07:47        0.16
  Out_to_WWTP          OUTFALL      0.14     0.17     6.17     0  10:26        0.17
  T5                   STORAGE      4.10     5.00    32.00     0  05:26        5.00
  T4                   STORAGE      3.62     5.00    32.00     0  06:26        5.00
  T6                   STORAGE      3.74     5.00    36.00     0  06:26        5.00
  T3                   STORAGE      3.73     5.00    27.00     0  07:50        5.00
  T2                   STORAGE      3.87     5.00    26.00     0  06:23        5.00
  T1                   STORAGE      3.58     5.00    15.00     0  05:18        5.00
  
  
  *******************
  Node Inflow Summary
  *******************
  
  -------------------------------------------------------------------------------------------------
                                  Maximum  Maximum                  Lateral       Total        Flow
                                  Lateral    Total  Time of Max      Inflow      Inflow     Balance
                                   Inflow   Inflow   Occurrence      Volume      Volume       Error
  Node                 Type           CMS      CMS  days hr:min    10^6 ltr    10^6 ltr     Percent
  -------------------------------------------------------------------------------------------------
  J1                   JUNCTION     0.310    0.310     0  07:46        4.57        4.57      -0.014
  J3                   JUNCTION     0.000    0.152     0  07:53           0        9.91       0.330
  CSO7                 JUNCTION     0.090    0.090     0  08:31        1.84        1.84       0.002
  J5                   JUNCTION     0.122    0.192     0  08:31        2.11        3.92       0.016
  CSO9                 JUNCTION     0.142    0.142     0  07:51        1.69        1.69       0.007
  J8                   JUNCTION     0.610    0.729     0  07:51        7.97        9.66       0.038
  CSO8                 JUNCTION     0.594    0.594     0  08:31        6.69        6.69      -0.007
  J10                  JUNCTION     0.459    0.907     0  07:41        4.78        11.4      -0.053
  J13                  JUNCTION     0.458    0.458     0  08:31        7.07        7.07      -0.065
  J15                  JUNCTION     0.000    0.970     0  07:47           0        23.4       0.300
  J16                  JUNCTION     0.650    0.650     0  07:36        8.44        8.44      -0.032
  CSO10                JUNCTION     0.216    0.216     0  07:46        2.89        2.89      -0.025
  J12                  JUNCTION     0.000    0.921     0  07:47           0        16.3       3.583
  J4                   JUNCTION     0.000    0.073     0  04:55           0        1.81       0.020
  J6                   JUNCTION     0.000    0.028     0  06:26           0        1.81       0.169
  J2                   JUNCTION     0.000    0.000     0  00:00           0           0       0.000 ltr
  J19                  JUNCTION     0.000    0.271     0  05:18           0          18       0.058
  J9                   JUNCTION     0.000    0.075     0  06:26           0        4.95       0.341
  J14                  JUNCTION     0.000    0.124     0  07:50           0        8.11       0.085
  J17                  JUNCTION     0.000    0.033     0  06:23           0        2.22       0.331
  J7                   JUNCTION     0.000    0.127     0  07:52           0        1.69       0.110
  J11                  JUNCTION     0.000    0.486     0  08:33           0        6.63       0.071
  J18                  JUNCTION     0.000    0.201     0  07:46           0        2.89      -0.002
  Out_to_WWTP          OUTFALL      0.000    0.271     0  06:32           0          18       0.000
  T5                   STORAGE      0.000    0.289     0  07:46           0        4.57      12.180
  T4                   STORAGE      0.000    0.184     0  07:47           0        3.92       6.115
  T6                   STORAGE      0.000    0.697     0  07:52           0        9.66       5.998
  T3                   STORAGE      0.000    1.132     0  07:55           0        15.8       9.120
  T2                   STORAGE      0.000    0.419     0  08:32           0        7.08      12.725
  T1                   STORAGE      0.000    0.911     0  07:48           0        23.4       2.260
  
  
  **********************
  Node Surcharge Summary
  **********************
  
  Surcharging occurs when water rises above the top of the highest conduit.
  ---------------------------------------------------------------------
                                               Max. Height   Min. Depth
                                   Hours       Above Crown    Below Rim
  Node                 Type      Surcharged         Meters       Meters
  ---------------------------------------------------------------------
  CSO7                 JUNCTION        2.87          0.945        0.000
  CSO9                 JUNCTION        1.08          1.682        0.000
  CSO8                 JUNCTION        1.56          1.547        0.000
  CSO10                JUNCTION        0.32          0.560        0.000
  J4                   JUNCTION        2.85          0.960        0.740
  
  
  *********************
  Node Flooding Summary
  *********************
  
  Flooding refers to all water that overflows a node, whether it ponds or not.
  --------------------------------------------------------------------------
                                                             Total   Maximum
                                 Maximum   Time of Max       Flood    Ponded
                        Hours       Rate    Occurrence      Volume     Depth
  Node                 Flooded       CMS   days hr:min    10^6 ltr    Meters
  --------------------------------------------------------------------------
  CSO7                    1.37     0.019      0  08:31       0.033     0.000
  CSO9                    0.15     0.016      0  07:51       0.004     0.000
  CSO8                    0.44     0.108      0  08:31       0.056     0.000
  CSO10                   0.04     0.031      0  07:46       0.002     0.000
  T5                     18.22     0.289      0  07:46       3.577     0.000
  T4                      6.02     0.156      0  07:47       1.571     0.000
  T6                      4.78     0.621      0  07:52       3.784     0.000
  T3                      3.99     1.008      0  07:55       3.885     0.000
  T2                      5.97     0.386      0  08:32       3.223     0.000
  T1                      3.85     0.641      0  07:48       4.459     0.000
  
  
  **********************
  Storage Volume Summary
  **********************
  
  --------------------------------------------------------------------------------------------------
                         Average     Avg  Evap Exfil       Maximum     Max    Time of Max    Maximum
                          Volume    Pcnt  Pcnt  Pcnt        Volume    Pcnt     Occurrence    Outflow
  Storage Unit           1000 m3    Full  Loss  Loss       1000 m3    Full    days hr:min        CMS
  --------------------------------------------------------------------------------------------------
  T5                       0.410      82     0     0         0.500     100       0  05:26      0.000
  T4                       0.362      72     0     0         0.500     100       0  06:26      0.028
  T6                       0.448      75     0     0         0.600     100       0  06:26      0.075
  T3                       1.939      75     0     0         2.600     100       0  07:50      0.124
  T2                       0.774      77     0     0         1.000     100       0  06:23      0.033
  T1                       0.501      72     0     0         0.700     100       0  05:18      0.271
  
  
  ***********************
  Outfall Loading Summary
  ***********************
  
  -----------------------------------------------------------
                         Flow       Avg       Max       Total
                         Freq      Flow      Flow      Volume
  Outfall Node           Pcnt       CMS       CMS    10^6 ltr
  -----------------------------------------------------------
  Out_to_WWTP           99.43     0.212     0.271      17.952
  -----------------------------------------------------------
  System                99.43     0.212     0.271      17.952
  
  
  ********************
  Link Flow Summary
  ********************
  
  -----------------------------------------------------------------------------
                                 Maximum  Time of Max   Maximum    Max/    Max/
                                  |Flow|   Occurrence   |Veloc|    Full    Full
  Link                 Type          CMS  days hr:min     m/sec    Flow   Depth
  -----------------------------------------------------------------------------
  C1                   CONDUIT     0.000     0  00:00      0.00    0.00    0.06
  C6                   CONDUIT     0.071     0  07:47      1.29    1.13    0.74
  C2                   CONDUIT     0.028     0  07:13      1.20    0.03    0.16
  C9                   CONDUIT     0.123     0  07:53      1.28    0.42    0.50
  C16                  CONDUIT     0.481     0  08:33      1.77    0.05    0.14
  C3                   CONDUIT     0.124     0  07:53      1.89    0.05    0.14
  C19                  CONDUIT     0.033     0  07:22      0.65    0.01    0.20
  C11                  CONDUIT     0.152     0  08:48      1.57    0.01    0.11
  C20                  CONDUIT     0.600     0  07:46      2.66    0.02    0.13
  C22                  CONDUIT     0.191     0  07:47      1.51    0.09    0.30
  C12                  CONDUIT     0.075     0  07:43      1.00    0.01    0.29
  C17                  CONDUIT     0.846     0  07:47      2.83    0.04    0.33
  C10                  CONDUIT     0.697     0  07:52      0.93    0.07    0.59
  C13                  CONDUIT     1.132     0  07:55      1.32    0.07    0.76
  C18                  CONDUIT     0.419     0  08:32      1.01    0.02    0.54
  C23                  CONDUIT     0.911     0  07:48      1.49    0.10    0.61
  C4                   CONDUIT     0.289     0  07:46      1.12    0.07    0.59
  C7                   CONDUIT     0.184     0  07:47      0.80    0.05    0.57
  C14                  CONDUIT     0.271     0  06:32      2.08    0.02    0.09
  C5                   CONDUIT     0.073     0  04:55      1.43    1.25    1.00
  C8                   CONDUIT     0.127     0  07:52      1.78    1.59    0.86
  C15                  CONDUIT     0.486     0  08:33      3.51    1.55    0.83
  C21                  CONDUIT     0.201     0  07:46      1.85    1.15    0.68
  V4                   ORIFICE     0.028     0  06:26                      0.35
  V5                   ORIFICE     0.000     0  00:00                      0.00
  V1                   ORIFICE     0.271     0  05:18                      1.00
  V6                   ORIFICE     0.075     0  06:26                      0.43
  V3                   ORIFICE     0.124     0  07:50                      0.65
  V2                   ORIFICE     0.033     0  06:23                      0.24
  
  
  ***************************
  Flow Classification Summary
  ***************************
  
  -------------------------------------------------------------------------------------
                      Adjusted    ---------- Fraction of Time in Flow Class ---------- 
                       /Actual         Up    Down  Sub   Sup   Up    Down  Norm  Inlet 
  Conduit               Length    Dry  Dry   Dry   Crit  Crit  Crit  Crit  Ltd   Ctrl  
  -------------------------------------------------------------------------------------
  C1                      1.00   0.18  0.82  0.00  0.00  0.00  0.00  0.00  0.00  0.00
  C6                      1.00   0.00  0.00  0.00  0.14  0.86  0.00  0.00  0.00  0.00
  C2                      1.00   0.18  0.00  0.00  0.00  0.81  0.00  0.00  0.81  0.00
  C9                      1.00   0.00  0.00  0.00  1.00  0.00  0.00  0.00  1.00  0.00
  C16                     1.00   0.00  0.10  0.00  0.31  0.59  0.00  0.00  0.27  0.00
  C3                      1.00   0.18  0.00  0.00  0.00  0.82  0.00  0.00  0.00  0.00
  C19                     1.00   0.00  0.18  0.00  0.82  0.00  0.00  0.00  0.82  0.00
  C11                     1.00   0.00  0.18  0.00  0.16  0.66  0.00  0.00  0.82  0.00
  C20                     1.00   0.00  0.00  0.00  0.60  0.40  0.00  0.00  0.99  0.00
  C22                     1.00   0.00  0.00  0.00  0.80  0.20  0.00  0.00  1.00  0.00
  C12                     1.00   0.00  0.18  0.00  0.80  0.02  0.00  0.00  0.82  0.00
  C17                     1.00   0.00  0.00  0.00  0.68  0.32  0.00  0.00  0.95  0.00
  C10                     1.00   0.00  0.00  0.00  0.98  0.02  0.00  0.00  0.98  0.00
  C13                     1.00   0.00  0.00  0.00  0.90  0.10  0.00  0.00  0.23  0.00
  C18                     1.00   0.00  0.00  0.00  0.97  0.03  0.00  0.00  0.98  0.00
  C23                     1.00   0.00  0.00  0.00  0.87  0.13  0.00  0.00  0.93  0.00
  C4                      1.00   0.00  0.00  0.00  0.98  0.02  0.00  0.00  0.99  0.00
  C7                      1.00   0.00  0.00  0.00  0.97  0.03  0.00  0.00  0.98  0.00
  C14                     1.00   0.00  0.00  0.00  0.00  1.00  0.00  0.00  0.25  0.00
  C5                      1.00   0.00  0.00  0.00  0.91  0.09  0.00  0.00  0.85  0.00
  C8                      1.00   0.00  0.00  0.00  0.18  0.82  0.00  0.00  0.00  0.00
  C15                     1.00   0.10  0.00  0.00  0.00  0.90  0.00  0.00  0.00  0.00
  C21                     1.00   0.00  0.00  0.00  0.01  0.99  0.00  0.00  0.00  0.00
  
  
  *************************
  Conduit Surcharge Summary
  *************************
  
  ----------------------------------------------------------------------------
                                                           Hours        Hours 
                         --------- Hours Full --------   Above Full   Capacity
  Conduit                Both Ends  Upstream  Dnstream   Normal Flow   Limited
  ----------------------------------------------------------------------------
  C6                          0.01      2.85      0.01      2.00         0.01
  C10                         0.01      0.01     19.59      0.01         0.01
  C13                         0.01      0.01     18.51      0.01         0.01
  C18                         0.01      0.01     19.27      0.01         0.01
  C23                         0.01      0.01     19.51      0.01         0.01
  C4                          0.01      0.01     19.90      0.01         0.01
  C7                          0.01      0.01     19.66      0.01         0.01
  C5                          2.83      2.87      3.17      2.90         2.60
  C8                          0.01      1.08      0.01      1.08         0.01
  C15                         0.01      1.56      0.01      1.69         0.01
  C21                         0.01      0.32      0.01      0.31         0.01
  

  Analysis begun on:  Tue Sep 21 09:11:06 2021
  Analysis ended on:  Tue Sep 21 09:11:06 2021
  Total elapsed time: < 1 sec