
  EPA STORM WATER MANAGEMENT MODEL - VERSION 5.1 (Build 5.3.0.dev0)
  --------------------------------------------------------------

  WARNING 09: time series interval greater than recording interval for Rain Gage RG1
  WARNING 09: time series interval greater than recording interval for Rain Gage RG2
  WARNING 09: time series interval greater than recording interval for Rain Gage RG3
  WARNING 09: time series interval greater than recording interval for Rain Gage RG4
  
  *********************************************************
  NOTE: The summary statistics displayed in this report are
  based on results found at every computational time step,  
  not just on results from each reporting time step.
  *********************************************************
  
  ****************
  Analysis Options
  ****************
  Flow Units ............... CMS
  Process Models:
    Rainfall/Runoff ........ YES
    RDII ................... NO
    Snowmelt ............... NO
    Groundwater ............ NO
    Flow Routing ........... YES
    Ponding Allowed ........ YES
    Water Quality .......... NO
  Infiltration Method ...... HORTON
  Flow Routing Method ...... DYNWAVE
  Surcharge Method ......... EXTRAN
  Starting Date ............ 08/28/2015 00:00:00
  Ending Date .............. 08/28/2015 23:40:00
  Antecedent Dry Days ...... 0.0
  Report Time Step ......... 00:01:00
  Wet Time Step ............ 00:01:00
  Dry Time Step ............ 00:01:00
  Routing Time Step ........ 5.00 sec
  Variable Time Step ....... YES
  Maximum Trials ........... 8
  Number of Threads ........ 1
  Head Tolerance ........... 0.001500 m
  
  
  **************************        Volume         Depth
  Runoff Quantity Continuity     hectare-m            mm
  **************************     ---------       -------
  Total Precipitation ......         2.610        14.481
  Evaporation Loss .........         0.000         0.000
  Infiltration Loss ........         0.000         0.000
  Surface Runoff ...........         2.592        14.385
  Final Storage ............         0.024         0.133
  Continuity Error (%) .....        -0.253
  
  
  **************************        Volume        Volume
  Flow Routing Continuity        hectare-m      10^6 ltr
  **************************     ---------     ---------
  Dry Weather Inflow .......         0.758         7.576
  Wet Weather Inflow .......         2.592        25.922
  Groundwater Inflow .......         0.000         0.000
  RDII Inflow ..............         0.000         0.000
  External Inflow ..........         0.000         0.000
  External Outflow .........         1.231        12.311
  Flooding Loss ............         1.186        11.858
  Evaporation Loss .........         0.000         0.000
  Exfiltration Loss ........         0.000         0.000
  Initial Stored Volume ....         0.000         0.000
  Final Stored Volume ......         0.725         7.247
  Continuity Error (%) .....         6.213
  
  
  *************************
  Highest Continuity Errors
  *************************
  Node T2 (20.08%)
  Node T3 (14.39%)
  Node T5 (11.72%)
  Node T4 (11.22%)
  Node T6 (8.28%)
  
  
  ***************************
  Time-Step Critical Elements
  ***************************
  None
  
  
  ********************************
  Highest Flow Instability Indexes
  ********************************
  All links are stable.
  
  
  *************************
  Routing Time Step Summary
  *************************
  Minimum Time Step           :     4.50 sec
  Average Time Step           :     5.00 sec
  Maximum Time Step           :     5.00 sec
  Percent in Steady State     :     0.00
  Average Iterations per Step :     2.10
  Percent Not Converging      :     0.37
  
  
  ***************************
  Subcatchment Runoff Summary
  ***************************
  
  ------------------------------------------------------------------------------------------------------------------------------
                            Total      Total      Total      Total     Imperv       Perv      Total       Total     Peak  Runoff
                           Precip      Runon       Evap      Infil     Runoff     Runoff     Runoff      Runoff   Runoff   Coeff
  Subcatchment                 mm         mm         mm         mm         mm         mm         mm    10^6 ltr      CMS
  ------------------------------------------------------------------------------------------------------------------------------
  SC01                      20.08       0.00       0.00       0.00      20.04       0.00      20.04        6.61     3.26   0.998
  SC02                      12.69       0.00       0.00       0.00      12.63       0.00      12.63        2.87     1.76   0.995
  SC03                      11.71       0.00       0.00       0.00      11.68       0.00      11.68        2.10     1.02   0.998
  SC04                      12.69       0.00       0.00       0.00      12.53       0.00      12.53        0.86     0.29   0.987
  SC05                      20.08       0.00       0.00       0.00      20.02       0.00      20.02        3.12     1.44   0.997
  SC06                      10.71       0.00       0.00       0.00      10.51       0.00      10.51        3.42     0.64   0.981
  SC07                      12.69       0.00       0.00       0.00      12.53       0.00      12.53        0.60     0.20   0.987
  SC08                      11.71       0.00       0.00       0.00      11.62       0.00      11.62        3.25     1.00   0.992
  SC09                      10.71       0.00       0.00       0.00      10.59       0.00      10.59        0.73     0.20   0.989
  SC010                     20.08       0.00       0.00       0.00      19.97       0.00      19.97        2.35     0.91   0.995
  
  
  ******************
  Node Depth Summary
  ******************
  
  ---------------------------------------------------------------------------------
                                 Average  Maximum  Maximum  Time of Max    Reported
                                   Depth    Depth      HGL   Occurrence   Max Depth
  Node                 Type       Meters   Meters   Meters  days hr:min      Meters
  ---------------------------------------------------------------------------------
  J1                   JUNCTION     0.06     0.40    34.40     0  15:51        0.39
  J3                   JUNCTION     0.06     0.12    18.12     0  17:36        0.12
  CSO7                 JUNCTION     0.10     1.20    35.20     0  15:51        1.20
  J5                   JUNCTION     0.05     0.19    32.19     0  15:57        0.19
  CSO9                 JUNCTION     0.11     2.00    42.00     0  15:45        2.00
  J8                   JUNCTION     0.08     0.28    36.28     0  15:52        0.28
  CSO8                 JUNCTION     0.12     2.00    34.00     0  15:50        2.00
  J10                  JUNCTION     0.07     0.35    29.35     0  15:57        0.35
  J13                  JUNCTION     0.05     0.33    29.33     0  15:56        0.33
  J15                  JUNCTION     0.13     0.56    15.56     0  15:58        0.56
  J16                  JUNCTION     0.06     0.43    30.43     0  15:51        0.41
  CSO10                JUNCTION     0.12     1.00    31.00     0  10:35        1.00
  J12                  JUNCTION     0.34     1.03    27.03     0  16:41        1.02
  J4                   JUNCTION     0.10     1.33    34.33     0  15:56        0.77
  J6                   JUNCTION     0.04     0.07    25.07     0  16:53        0.07
  J2                   JUNCTION     0.00     0.00    25.00     0  00:00        0.00
  J19                  JUNCTION     0.11     0.17     8.17     0  15:29        0.17
  J9                   JUNCTION     0.05     0.11    29.11     0  13:14        0.11
  J14                  JUNCTION     0.07     0.15    20.15     0  19:30        0.15
  J17                  JUNCTION     0.04     0.08    20.08     0  17:04        0.08
  J7                   JUNCTION     0.06     0.23    39.23     0  15:59        0.23
  J11                  JUNCTION     0.07     0.30    31.30     0  16:15        0.30
  J18                  JUNCTION     0.05     0.16    29.16     0  16:14        0.16
  Out_to_WWTP          OUTFALL      0.11     0.17     6.17     0  12:03        0.17
  T5                   STORAGE      3.08     5.00    32.00     0  10:53        5.00
  T4                   STORAGE      2.55     5.00    32.00     0  16:03        5.00
  T6                   STORAGE      2.96     5.00    36.00     0  11:51        5.00
  T3                   STORAGE      2.25     5.00    27.00     0  16:36        5.00
  T2                   STORAGE      2.33     5.00    26.00     0  16:01        5.00
  T1                   STORAGE      2.39     5.00    15.00     0  12:05        5.00
  
  
  *******************
  Node Inflow Summary
  *******************
  
  -------------------------------------------------------------------------------------------------
                                  Maximum  Maximum                  Lateral       Total        Flow
                                  Lateral    Total  Time of Max      Inflow      Inflow     Balance
                                   Inflow   Inflow   Occurrence      Volume      Volume       Error
  Node                 Type           CMS      CMS  days hr:min    10^6 ltr    10^6 ltr     Percent
  -------------------------------------------------------------------------------------------------
  J1                   JUNCTION     1.456    1.456     0  15:51        4.22        4.22       0.005
  J3                   JUNCTION     0.000    0.152     0  16:46           0        5.86       0.553
  CSO7                 JUNCTION     0.209    0.209     0  15:56        1.16        1.16       0.007
  J5                   JUNCTION     0.295    0.359     0  15:56        1.11        2.18       0.022
  CSO9                 JUNCTION     0.207    0.207     0  15:46        1.11        1.11       0.005
  J8                   JUNCTION     0.667    0.785     0  15:51        5.25        6.33       0.032
  CSO8                 JUNCTION     1.011    1.011     0  15:56         3.7         3.7      -0.017
  J10                  JUNCTION     1.035    1.487     0  15:56        2.85        6.26      -0.181
  J13                  JUNCTION     1.769    1.769     0  15:56        3.78        3.78      -0.065
  J15                  JUNCTION     0.000    3.471     0  15:51           0        16.9       0.439
  J16                  JUNCTION     3.278    3.278     0  15:51        7.69        7.69      -0.106
  CSO10                JUNCTION     0.916    0.916     0  15:51        2.62        2.62      -0.055
  J12                  JUNCTION     0.000    1.379     0  15:57           0        9.47       5.545
  J4                   JUNCTION     0.000    0.085     0  15:54           0        1.06       0.057
  J6                   JUNCTION     0.000    0.028     0  16:03           0        1.11       0.290
  J2                   JUNCTION     0.000    0.000     0  00:00           0           0       0.000 ltr
  J19                  JUNCTION     0.000    0.271     0  12:05           0        12.3       0.086
  J9                   JUNCTION     0.000    0.075     0  11:51           0        3.13       0.546
  J14                  JUNCTION     0.000    0.124     0  16:36           0        4.76       0.142
  J17                  JUNCTION     0.000    0.033     0  16:02           0        1.28       0.547
  J7                   JUNCTION     0.000    0.127     0  15:59           0        1.08       0.098
  J11                  JUNCTION     0.000    0.486     0  16:15           0        3.41       0.086
  J18                  JUNCTION     0.000    0.202     0  16:14           0        2.11      -0.015
  Out_to_WWTP          OUTFALL      0.000    0.271     0  15:30           0        12.3       0.000
  T5                   STORAGE      0.000    1.321     0  15:51           0        4.22      13.270
  T4                   STORAGE      0.000    0.335     0  15:57           0        2.17      12.635
  T6                   STORAGE      0.000    0.749     0  15:52           0        6.33       9.024
  T3                   STORAGE      0.000    1.212     0  15:59           0        8.97      16.813
  T2                   STORAGE      0.000    1.616     0  15:56           0        3.79      25.128
  T1                   STORAGE      0.000    2.584     0  15:58           0        16.8       3.249
  
  
  **********************
  Node Surcharge Summary
  **********************
  
  Surcharging occurs when water rises above the top of the highest conduit.
  ---------------------------------------------------------------------
                                               Max. Height   Min. Depth
                                   Hours       Above Crown    Below Rim
  Node                 Type      Surcharged         Meters       Meters
  ---------------------------------------------------------------------
  CSO7                 JUNCTION        0.79          0.945        0.000
  CSO9                 JUNCTION        0.61          1.682        0.000
  CSO8                 JUNCTION        0.62          1.547        0.000
  CSO10                JUNCTION        0.97          0.560        0.000
  J4                   JUNCTION        0.74          1.032        0.668
  
  
  *********************
  Node Flooding Summary
  *********************
  
  Flooding refers to all water that overflows a node, whether it ponds or not.
  --------------------------------------------------------------------------
                                                             Total   Maximum
                                 Maximum   Time of Max       Flood    Ponded
                        Hours       Rate    Occurrence      Volume     Depth
  Node                 Flooded       CMS   days hr:min    10^6 ltr    Meters
  --------------------------------------------------------------------------
  CSO7                    0.63     0.135      0  15:56       0.097     0.000
  CSO9                    0.29     0.085      0  15:46       0.032     0.000
  CSO8                    0.41     0.527      0  15:56       0.294     0.000
  CSO10                   0.78     0.713      0  15:51       0.514     0.000
  T5                     12.77     1.321      0  15:51       3.222     0.000
  T4                      1.69     0.256      0  16:03       0.489     0.000
  T6                      5.49     0.674      0  15:52       2.307     0.000
  T3                      1.38     0.579      0  16:43       0.409     0.000
  T2                      1.43     0.957      0  16:01       0.952     0.000
  T1                      2.19     2.313      0  15:58       3.541     0.000
  
  
  **********************
  Storage Volume Summary
  **********************
  
  --------------------------------------------------------------------------------------------------
                         Average     Avg  Evap Exfil       Maximum     Max    Time of Max    Maximum
                          Volume    Pcnt  Pcnt  Pcnt        Volume    Pcnt     Occurrence    Outflow
  Storage Unit           1000 m3    Full  Loss  Loss       1000 m3    Full    days hr:min        CMS
  --------------------------------------------------------------------------------------------------
  T5                       0.308      62     0     0         0.500     100       0  10:53      0.000
  T4                       0.255      51     0     0         0.500     100       0  16:03      0.028
  T6                       0.355      59     0     0         0.600     100       0  11:51      0.075
  T3                       1.167      45     0     0         2.600     100       0  16:36      0.380
  T2                       0.466      47     0     0         1.000     100       0  16:01      0.033
  T1                       0.335      48     0     0         0.700     100       0  12:05      0.271
  
  
  ***********************
  Outfall Loading Summary
  ***********************
  
  -----------------------------------------------------------
                         Flow       Avg       Max       Total
                         Freq      Flow      Flow      Volume
  Outfall Node           Pcnt       CMS       CMS    10^6 ltr
  -----------------------------------------------------------
  Out_to_WWTP           99.44     0.145     0.271      12.311
  -----------------------------------------------------------
  System                99.44     0.145     0.271      12.311
  
  
  ********************
  Link Flow Summary
  ********************
  
  -----------------------------------------------------------------------------
                                 Maximum  Time of Max   Maximum    Max/    Max/
                                  |Flow|   Occurrence   |Veloc|    Full    Full
  Link                 Type          CMS  days hr:min     m/sec    Flow   Depth
  -----------------------------------------------------------------------------
  C1                   CONDUIT     0.000     0  00:00      0.00    0.00    0.06
  C6                   CONDUIT     0.073     0  15:57      1.29    1.16    0.82
  C2                   CONDUIT     0.028     0  16:52      1.12    0.03    0.16
  C9                   CONDUIT     0.127     0  15:59      1.30    0.43    0.51
  C16                  CONDUIT     0.488     0  16:12      1.79    0.05    0.16
  C3                   CONDUIT     0.124     0  16:46      1.88    0.05    0.14
  C19                  CONDUIT     0.033     0  17:04      0.64    0.01    0.32
  C11                  CONDUIT     0.152     0  17:36      1.58    0.01    0.17
  C20                  CONDUIT     3.119     0  15:51      6.38    0.10    0.23
  C22                  CONDUIT     0.202     0  16:14      1.64    0.09    0.45
  C12                  CONDUIT     0.075     0  13:14      1.07    0.01    0.28
  C17                  CONDUIT     1.303     0  15:57      3.63    0.06    0.30
  C10                  CONDUIT     0.749     0  15:52      0.95    0.08    0.59
  C13                  CONDUIT     1.212     0  15:59      1.12    0.07    0.76
  C18                  CONDUIT     1.616     0  15:56      1.40    0.06    0.58
  C23                  CONDUIT     2.584     0  15:58      2.00    0.29    0.69
  C4                   CONDUIT     1.321     0  15:51      2.26    0.32    0.70
  C7                   CONDUIT     0.335     0  15:57      1.05    0.08    0.60
  C14                  CONDUIT     0.271     0  15:30      2.08    0.02    0.09
  C5                   CONDUIT     0.085     0  15:54      1.79    1.46    1.00
  C8                   CONDUIT     0.127     0  15:59      1.85    1.60    0.86
  C15                  CONDUIT     0.486     0  16:15      3.77    1.55    0.83
  C21                  CONDUIT     0.202     0  16:14      1.90    1.16    0.69
  V4                   ORIFICE     0.028     0  16:03                      0.35
  V5                   ORIFICE     0.000     0  00:00                      0.00
  V1                   ORIFICE     0.271     0  12:05                      1.00
  V6                   ORIFICE     0.075     0  11:51                      0.43
  V3                   ORIFICE     0.124     0  16:36                      0.65
  V2                   ORIFICE     0.033     0  16:02                      0.24
  
  
  ***************************
  Flow Classification Summary
  ***************************
  
  -------------------------------------------------------------------------------------
                      Adjusted    ---------- Fraction of Time in Flow Class ---------- 
                       /Actual         Up    Down  Sub   Sup   Up    Down  Norm  Inlet 
  Conduit               Length    Dry  Dry   Dry   Crit  Crit  Crit  Crit  Ltd   Ctrl  
  -------------------------------------------------------------------------------------
  C1                      1.00   0.49  0.51  0.00  0.00  0.00  0.00  0.00  0.00  0.00
  C6                      1.00   0.00  0.00  0.00  0.05  0.95  0.00  0.00  0.00  0.00
  C2                      1.00   0.49  0.00  0.00  0.00  0.51  0.00  0.00  0.50  0.00
  C9                      1.00   0.00  0.00  0.00  1.00  0.00  0.00  0.00  1.00  0.00
  C16                     1.00   0.00  0.00  0.00  0.65  0.35  0.00  0.00  0.62  0.00
  C3                      1.00   0.49  0.00  0.00  0.00  0.51  0.00  0.00  0.00  0.00
  C19                     1.00   0.00  0.49  0.00  0.51  0.00  0.00  0.00  0.51  0.00
  C11                     1.00   0.00  0.49  0.00  0.08  0.43  0.00  0.00  0.51  0.00
  C20                     1.00   0.00  0.00  0.00  0.37  0.63  0.00  0.00  0.98  0.00
  C22                     1.00   0.00  0.00  0.00  0.87  0.13  0.00  0.00  1.00  0.00
  C12                     1.00   0.00  0.49  0.00  0.41  0.10  0.00  0.00  0.51  0.00
  C17                     1.00   0.00  0.00  0.00  0.34  0.66  0.00  0.00  0.93  0.00
  C10                     1.00   0.00  0.00  0.00  0.98  0.02  0.00  0.00  0.99  0.00
  C13                     1.00   0.00  0.00  0.00  0.95  0.05  0.00  0.00  0.64  0.00
  C18                     1.00   0.00  0.00  0.00  0.98  0.02  0.00  0.00  0.99  0.00
  C23                     1.00   0.00  0.00  0.00  0.57  0.43  0.00  0.00  0.97  0.00
  C4                      1.00   0.00  0.00  0.00  0.98  0.02  0.00  0.00  0.99  0.00
  C7                      1.00   0.00  0.00  0.00  0.98  0.02  0.00  0.00  0.98  0.00
  C14                     1.00   0.00  0.00  0.00  0.00  1.00  0.00  0.00  0.26  0.00
  C5                      1.00   0.00  0.00  0.00  0.93  0.07  0.00  0.00  0.95  0.00
  C8                      1.00   0.00  0.00  0.00  0.24  0.76  0.00  0.00  0.00  0.00
  C15                     1.00   0.00  0.00  0.00  0.00  1.00  0.00  0.00  0.00  0.00
  C21                     1.00   0.00  0.00  0.00  0.01  0.99  0.00  0.00  0.00  0.00
  
  
  *************************
  Conduit Surcharge Summary
  *************************
  
  ----------------------------------------------------------------------------
                                                           Hours        Hours 
                         --------- Hours Full --------   Above Full   Capacity
  Conduit                Both Ends  Upstream  Dnstream   Normal Flow   Limited
  ----------------------------------------------------------------------------
  C6                          0.01      0.74      0.01      0.63         0.01
  C10                         0.01      0.01     15.65      0.01         0.01
  C13                         0.01      0.01     11.63      0.01         0.01
  C18                         0.01      0.01     12.00      0.01         0.01
  C23                         0.01      0.01     13.00      0.01         0.01
  C4                          0.01      0.01     16.27      0.01         0.01
  C7                          0.01      0.01     15.84      0.01         0.01
  C5                          0.73      0.79      0.82      0.77         0.70
  C8                          0.01      0.61      0.01      0.59         0.01
  C15                         0.01      0.62      0.01      0.64         0.01
  C21                         0.01      0.97      0.01      0.90         0.01
  

  Analysis begun on:  Tue Sep 21 11:03:00 2021
  Analysis ended on:  Tue Sep 21 11:03:00 2021
  Total elapsed time: < 1 sec