
  EPA STORM WATER MANAGEMENT MODEL - VERSION 5.1 (Build 5.3.0.dev0)
  --------------------------------------------------------------

  WARNING 09: time series interval greater than recording interval for Rain Gage RG1
  WARNING 09: time series interval greater than recording interval for Rain Gage RG2
  WARNING 09: time series interval greater than recording interval for Rain Gage RG3
  WARNING 09: time series interval greater than recording interval for Rain Gage RG4
  
  *********************************************************
  NOTE: The summary statistics displayed in this report are
  based on results found at every computational time step,  
  not just on results from each reporting time step.
  *********************************************************
  
  ****************
  Analysis Options
  ****************
  Flow Units ............... CMS
  Process Models:
    Rainfall/Runoff ........ YES
    RDII ................... NO
    Snowmelt ............... NO
    Groundwater ............ NO
    Flow Routing ........... YES
    Ponding Allowed ........ YES
    Water Quality .......... NO
  Infiltration Method ...... HORTON
  Flow Routing Method ...... DYNWAVE
  Surcharge Method ......... EXTRAN
  Starting Date ............ 08/28/2015 00:00:00
  Ending Date .............. 08/28/2015 23:40:00
  Antecedent Dry Days ...... 0.0
  Report Time Step ......... 00:01:00
  Wet Time Step ............ 00:01:00
  Dry Time Step ............ 00:01:00
  Routing Time Step ........ 5.00 sec
  Variable Time Step ....... YES
  Maximum Trials ........... 8
  Number of Threads ........ 1
  Head Tolerance ........... 0.001500 m
  
  
  **************************        Volume         Depth
  Runoff Quantity Continuity     hectare-m            mm
  **************************     ---------       -------
  Total Precipitation ......         2.684        14.893
  Evaporation Loss .........         0.000         0.000
  Infiltration Loss ........         0.000         0.000
  Surface Runoff ...........         2.667        14.802
  Final Storage ............         0.018         0.102
  Continuity Error (%) .....        -0.071
  
  
  **************************        Volume        Volume
  Flow Routing Continuity        hectare-m      10^6 ltr
  **************************     ---------     ---------
  Dry Weather Inflow .......         0.758         7.576
  Wet Weather Inflow .......         2.667        26.672
  Groundwater Inflow .......         0.000         0.000
  RDII Inflow ..............         0.000         0.000
  External Inflow ..........         0.000         0.000
  External Outflow .........         1.289        12.891
  Flooding Loss ............         1.351        13.509
  Evaporation Loss .........         0.000         0.000
  Exfiltration Loss ........         0.000         0.000
  Initial Stored Volume ....         0.000         0.000
  Final Stored Volume ......         0.630         6.302
  Continuity Error (%) .....         4.514
  
  
  *************************
  Highest Continuity Errors
  *************************
  Node T2 (16.58%)
  Node T5 (14.88%)
  Node T3 (9.92%)
  Node T4 (7.73%)
  Node T6 (4.25%)
  
  
  ***************************
  Time-Step Critical Elements
  ***************************
  None
  
  
  ********************************
  Highest Flow Instability Indexes
  ********************************
  Link C15 (1)
  
  
  *************************
  Routing Time Step Summary
  *************************
  Minimum Time Step           :     4.50 sec
  Average Time Step           :     5.00 sec
  Maximum Time Step           :     5.00 sec
  Percent in Steady State     :     0.00
  Average Iterations per Step :     2.17
  Percent Not Converging      :     0.81
  
  
  ***************************
  Subcatchment Runoff Summary
  ***************************
  
  ------------------------------------------------------------------------------------------------------------------------------
                            Total      Total      Total      Total     Imperv       Perv      Total       Total     Peak  Runoff
                           Precip      Runon       Evap      Infil     Runoff     Runoff     Runoff      Runoff   Runoff   Coeff
  Subcatchment                 mm         mm         mm         mm         mm         mm         mm    10^6 ltr      CMS
  ------------------------------------------------------------------------------------------------------------------------------
  SC01                      14.42       0.00       0.00       0.00      14.37       0.00      14.37        4.74     0.63   0.996
  SC02                      13.82       0.00       0.00       0.00      13.76       0.00      13.76        3.13     0.42   0.995
  SC03                      16.66       0.00       0.00       0.00      16.60       0.00      16.60        2.99     0.40   0.997
  SC04                      13.82       0.00       0.00       0.00      13.70       0.00      13.70        0.95     0.10   0.991
  SC05                      14.42       0.00       0.00       0.00      14.36       0.00      14.36        2.24     0.29   0.996
  SC06                      14.49       0.00       0.00       0.00      14.33       0.00      14.33        4.66     0.55   0.989
  SC07                      13.82       0.00       0.00       0.00      13.70       0.00      13.70        0.65     0.07   0.991
  SC08                      16.66       0.00       0.00       0.00      16.55       0.00      16.55        4.63     0.52   0.993
  SC09                      14.49       0.00       0.00       0.00      14.38       0.00      14.38        0.99     0.13   0.992
  SC010                     14.42       0.00       0.00       0.00      14.35       0.00      14.35        1.69     0.21   0.995
  
  
  ******************
  Node Depth Summary
  ******************
  
  ---------------------------------------------------------------------------------
                                 Average  Maximum  Maximum  Time of Max    Reported
                                   Depth    Depth      HGL   Occurrence   Max Depth
  Node                 Type       Meters   Meters   Meters  days hr:min      Meters
  ---------------------------------------------------------------------------------
  J1                   JUNCTION     0.06     0.18    34.18     0  10:51        0.18
  J3                   JUNCTION     0.07     0.12    18.12     0  12:10        0.12
  CSO7                 JUNCTION     0.09     1.20    35.20     0  10:41        1.20
  J5                   JUNCTION     0.05     0.14    32.14     0  10:47        0.14
  CSO9                 JUNCTION     0.12     2.00    42.00     0  10:50        2.00
  J8                   JUNCTION     0.08     0.27    36.27     0  11:02        0.27
  CSO8                 JUNCTION     0.12     2.00    34.00     0  10:40        2.00
  J10                  JUNCTION     0.08     0.27    29.27     0  10:47        0.27
  J13                  JUNCTION     0.05     0.17    29.17     0  10:46        0.17
  J15                  JUNCTION     0.13     0.32    15.32     0  10:53        0.32
  J16                  JUNCTION     0.05     0.19    30.19     0  10:51        0.19
  CSO10                JUNCTION     0.09     1.00    31.00     0  10:46        0.92
  J12                  JUNCTION     0.49     1.03    27.03     0  11:13        1.03
  J4                   JUNCTION     0.10     1.32    34.32     0  10:42        0.76
  J6                   JUNCTION     0.04     0.07    25.07     0  11:37        0.07
  J2                   JUNCTION     0.00     0.00    25.00     0  00:00        0.00
  J19                  JUNCTION     0.11     0.17     8.17     0  10:21        0.17
  J9                   JUNCTION     0.06     0.11    29.11     0  11:40        0.11
  J14                  JUNCTION     0.09     0.15    20.15     0  15:32        0.15
  J17                  JUNCTION     0.04     0.08    20.08     0  11:54        0.08
  J7                   JUNCTION     0.07     0.23    39.23     0  11:02        0.23
  J11                  JUNCTION     0.07     0.29    31.29     0  10:47        0.29
  J18                  JUNCTION     0.04     0.16    29.16     0  10:52        0.16
  Out_to_WWTP          OUTFALL      0.11     0.17     6.17     0  13:58        0.17
  T5                   STORAGE      3.27     5.00    32.00     0  10:02        5.00
  T4                   STORAGE      2.72     5.00    32.00     0  10:49        5.00
  T6                   STORAGE      2.82     5.00    36.00     0  10:08        5.00
  T3                   STORAGE      2.93     5.00    27.00     0  11:12        5.00
  T2                   STORAGE      2.81     5.00    26.00     0  10:55        5.00
  T1                   STORAGE      2.36     5.00    15.00     0  10:20        5.00
  
  
  *******************
  Node Inflow Summary
  *******************
  
  -------------------------------------------------------------------------------------------------
                                  Maximum  Maximum                  Lateral       Total        Flow
                                  Lateral    Total  Time of Max      Inflow      Inflow     Balance
                                   Inflow   Inflow   Occurrence      Volume      Volume       Error
  Node                 Type           CMS      CMS  days hr:min    10^6 ltr    10^6 ltr     Percent
  -------------------------------------------------------------------------------------------------
  J1                   JUNCTION     0.313    0.313     0  10:51        3.33        3.33      -0.003
  J3                   JUNCTION     0.000    0.152     0  11:16           0        7.52       0.414
  CSO7                 JUNCTION     0.082    0.082     0  10:46        1.22        1.22       0.011
  J5                   JUNCTION     0.109    0.179     0  10:46        1.19        2.41       0.014
  CSO9                 JUNCTION     0.141    0.141     0  10:56        1.37        1.37      -0.006
  J8                   JUNCTION     0.581    0.696     0  11:01         6.5        7.87       0.021
  CSO8                 JUNCTION     0.529    0.529     0  10:46        5.08        5.08      -0.010
  J10                  JUNCTION     0.418    0.831     0  10:46        3.74        8.82      -0.098
  J13                  JUNCTION     0.438    0.438     0  10:46        4.04        4.04      -0.102
  J15                  JUNCTION     0.000    0.963     0  10:52           0        16.9       0.387
  J16                  JUNCTION     0.652    0.652     0  10:51        5.82        5.82      -0.049
  CSO10                JUNCTION     0.215    0.215     0  10:51        1.96        1.96      -0.017
  J12                  JUNCTION     0.000    0.859     0  10:47           0        12.4       1.560
  J4                   JUNCTION     0.000    0.079     0  10:41           0        1.21       0.073
  J6                   JUNCTION     0.000    0.028     0  10:49           0        1.33       0.218
  J2                   JUNCTION     0.000    0.000     0  00:00           0           0       0.000 ltr
  J19                  JUNCTION     0.000    0.271     0  10:20           0        12.9       0.074
  J9                   JUNCTION     0.000    0.075     0  10:08           0        3.58       0.402
  J14                  JUNCTION     0.000    0.124     0  11:12           0         6.2       0.106
  J17                  JUNCTION     0.000    0.033     0  10:55           0        1.62       0.406
  J7                   JUNCTION     0.000    0.126     0  11:02           0        1.37       0.073
  J11                  JUNCTION     0.000    0.484     0  10:47           0        5.08       0.038
  J18                  JUNCTION     0.000    0.201     0  10:51           0        1.96      -0.041
  Out_to_WWTP          OUTFALL      0.000    0.271     0  10:21           0        12.9       0.000
  T5                   STORAGE      0.000    0.291     0  10:51           0        3.33      17.476
  T4                   STORAGE      0.000    0.173     0  10:47           0        2.41       8.372
  T6                   STORAGE      0.000    0.669     0  11:02           0        7.86       4.440
  T3                   STORAGE      0.000    0.763     0  11:15           0        12.2      11.017
  T2                   STORAGE      0.000    0.407     0  10:46           0        4.04      19.875
  T1                   STORAGE      0.000    0.894     0  10:53           0        16.8       2.445
  
  
  **********************
  Node Surcharge Summary
  **********************
  
  Surcharging occurs when water rises above the top of the highest conduit.
  ---------------------------------------------------------------------
                                               Max. Height   Min. Depth
                                   Hours       Above Crown    Below Rim
  Node                 Type      Surcharged         Meters       Meters
  ---------------------------------------------------------------------
  CSO7                 JUNCTION        0.55          0.945        0.000
  CSO9                 JUNCTION        0.91          1.682        0.000
  CSO8                 JUNCTION        0.72          1.547        0.000
  CSO10                JUNCTION        0.14          0.560        0.000
  J4                   JUNCTION        0.51          1.019        0.681
  
  
  *********************
  Node Flooding Summary
  *********************
  
  Flooding refers to all water that overflows a node, whether it ponds or not.
  --------------------------------------------------------------------------
                                                             Total   Maximum
                                 Maximum   Time of Max       Flood    Ponded
                        Hours       Rate    Occurrence      Volume     Depth
  Node                 Flooded       CMS   days hr:min    10^6 ltr    Meters
  --------------------------------------------------------------------------
  CSO7                    0.17     0.012      0  10:46       0.003     0.000
  CSO9                    0.09     0.016      0  10:56       0.002     0.000
  CSO8                    0.04     0.048      0  10:46       0.003     0.000
  CSO10                   0.02     0.033      0  10:51       0.001     0.000
  T5                     13.63     0.291      0  10:52       2.338     0.000
  T4                      3.31     0.143      0  10:52       0.641     0.000
  T6                      5.04     0.594      0  11:02       3.732     0.000
  T3                      3.86     0.639      0  11:15       2.534     0.000
  T2                      3.11     0.272      0  10:56       1.062     0.000
  T1                      3.42     0.624      0  10:53       3.194     0.000
  
  
  **********************
  Storage Volume Summary
  **********************
  
  --------------------------------------------------------------------------------------------------
                         Average     Avg  Evap Exfil       Maximum     Max    Time of Max    Maximum
                          Volume    Pcnt  Pcnt  Pcnt        Volume    Pcnt     Occurrence    Outflow
  Storage Unit           1000 m3    Full  Loss  Loss       1000 m3    Full    days hr:min        CMS
  --------------------------------------------------------------------------------------------------
  T5                       0.327      65     0     0         0.500     100       0  10:02      0.000
  T4                       0.272      54     0     0         0.500     100       0  10:49      0.028
  T6                       0.339      56     0     0         0.600     100       0  10:08      0.075
  T3                       1.522      59     0     0         2.600     100       0  11:12      0.124
  T2                       0.563      56     0     0         1.000     100       0  10:55      0.033
  T1                       0.330      47     0     0         0.700     100       0  10:20      0.271
  
  
  ***********************
  Outfall Loading Summary
  ***********************
  
  -----------------------------------------------------------
                         Flow       Avg       Max       Total
                         Freq      Flow      Flow      Volume
  Outfall Node           Pcnt       CMS       CMS    10^6 ltr
  -----------------------------------------------------------
  Out_to_WWTP           99.43     0.152     0.271      12.891
  -----------------------------------------------------------
  System                99.43     0.152     0.271      12.891
  
  
  ********************
  Link Flow Summary
  ********************
  
  -----------------------------------------------------------------------------
                                 Maximum  Time of Max   Maximum    Max/    Max/
                                  |Flow|   Occurrence   |Veloc|    Full    Full
  Link                 Type          CMS  days hr:min     m/sec    Flow   Depth
  -----------------------------------------------------------------------------
  C1                   CONDUIT     0.000     0  00:00      0.00    0.00    0.06
  C6                   CONDUIT     0.071     0  10:47      1.28    1.12    0.73
  C2                   CONDUIT     0.028     0  11:37      1.07    0.03    0.16
  C9                   CONDUIT     0.122     0  11:02      1.27    0.42    0.49
  C16                  CONDUIT     0.460     0  10:48      1.73    0.04    0.14
  C3                   CONDUIT     0.124     0  11:16      1.88    0.05    0.14
  C19                  CONDUIT     0.033     0  11:54      0.65    0.01    0.20
  C11                  CONDUIT     0.152     0  12:09      1.58    0.01    0.11
  C20                  CONDUIT     0.602     0  10:51      2.64    0.02    0.13
  C22                  CONDUIT     0.188     0  10:52      1.51    0.09    0.30
  C12                  CONDUIT     0.075     0  11:40      0.71    0.01    0.28
  C17                  CONDUIT     0.784     0  10:47      2.66    0.04    0.31
  C10                  CONDUIT     0.669     0  11:02      0.93    0.07    0.59
  C13                  CONDUIT     0.763     0  11:15      0.77    0.04    0.76
  C18                  CONDUIT     0.407     0  10:46      1.01    0.02    0.54
  C23                  CONDUIT     0.894     0  10:53      1.38    0.10    0.61
  C4                   CONDUIT     0.291     0  10:51      1.12    0.07    0.59
  C7                   CONDUIT     0.173     0  10:47      0.80    0.04    0.57
  C14                  CONDUIT     0.271     0  10:21      2.08    0.02    0.09
  C5                   CONDUIT     0.079     0  10:41      1.53    1.34    1.00
  C8                   CONDUIT     0.126     0  11:02      1.79    1.59    0.85
  C15                  CONDUIT     0.484     0  10:47      3.49    1.54    0.82
  C21                  CONDUIT     0.201     0  10:51      1.84    1.15    0.68
  V4                   ORIFICE     0.028     0  10:49                      0.35
  V5                   ORIFICE     0.000     0  00:00                      0.00
  V1                   ORIFICE     0.271     0  10:20                      1.00
  V6                   ORIFICE     0.075     0  10:08                      0.43
  V3                   ORIFICE     0.124     0  11:12                      0.65
  V2                   ORIFICE     0.033     0  10:55                      0.24
  
  
  ***************************
  Flow Classification Summary
  ***************************
  
  -------------------------------------------------------------------------------------
                      Adjusted    ---------- Fraction of Time in Flow Class ---------- 
                       /Actual         Up    Down  Sub   Sup   Up    Down  Norm  Inlet 
  Conduit               Length    Dry  Dry   Dry   Crit  Crit  Crit  Crit  Ltd   Ctrl  
  -------------------------------------------------------------------------------------
  C1                      1.00   0.38  0.62  0.00  0.00  0.00  0.00  0.00  0.00  0.00
  C6                      1.00   0.00  0.00  0.00  0.03  0.97  0.00  0.00  0.00  0.00
  C2                      1.00   0.38  0.00  0.00  0.05  0.57  0.00  0.00  0.61  0.00
  C9                      1.00   0.00  0.00  0.00  1.00  0.00  0.00  0.00  1.00  0.00
  C16                     1.00   0.00  0.25  0.00  0.35  0.40  0.00  0.00  0.27  0.00
  C3                      1.00   0.38  0.00  0.00  0.00  0.62  0.00  0.00  0.00  0.00
  C19                     1.00   0.00  0.38  0.00  0.62  0.00  0.00  0.00  0.62  0.00
  C11                     1.00   0.00  0.38  0.00  0.14  0.48  0.00  0.00  0.62  0.00
  C20                     1.00   0.00  0.00  0.00  0.43  0.57  0.00  0.00  0.99  0.00
  C22                     1.00   0.00  0.00  0.00  0.85  0.15  0.00  0.00  1.00  0.00
  C12                     1.00   0.00  0.38  0.00  0.62  0.00  0.00  0.00  0.62  0.00
  C17                     1.00   0.00  0.00  0.00  0.54  0.46  0.00  0.00  0.93  0.00
  C10                     1.00   0.00  0.00  0.00  0.98  0.02  0.00  0.00  0.98  0.00
  C13                     1.00   0.00  0.00  0.00  0.93  0.07  0.00  0.00  0.39  0.00
  C18                     1.00   0.00  0.00  0.00  0.97  0.03  0.00  0.00  0.98  0.00
  C23                     1.00   0.00  0.00  0.00  0.67  0.33  0.00  0.00  0.92  0.00
  C4                      1.00   0.00  0.00  0.00  0.98  0.02  0.00  0.00  0.99  0.00
  C7                      1.00   0.00  0.00  0.00  0.97  0.03  0.00  0.00  0.98  0.00
  C14                     1.00   0.00  0.00  0.00  0.00  1.00  0.00  0.00  0.30  0.00
  C5                      1.00   0.00  0.00  0.00  0.94  0.06  0.00  0.00  0.96  0.00
  C8                      1.00   0.00  0.00  0.00  0.27  0.73  0.00  0.00  0.00  0.00
  C15                     1.00   0.25  0.00  0.00  0.00  0.75  0.00  0.00  0.01  0.00
  C21                     1.00   0.00  0.00  0.00  0.00  1.00  0.00  0.00  0.00  0.00
  
  
  *************************
  Conduit Surcharge Summary
  *************************
  
  ----------------------------------------------------------------------------
                                                           Hours        Hours 
                         --------- Hours Full --------   Above Full   Capacity
  Conduit                Both Ends  Upstream  Dnstream   Normal Flow   Limited
  ----------------------------------------------------------------------------
  C6                          0.01      0.51      0.01      0.33         0.01
  C10                         0.01      0.01     15.77      0.01         0.01
  C13                         0.01      0.01     14.36      0.01         0.01
  C18                         0.01      0.01     14.62      0.01         0.01
  C23                         0.01      0.01     14.43      0.01         0.01
  C4                          0.01      0.01     16.07      0.01         0.01
  C7                          0.01      0.01     15.84      0.01         0.01
  C5                          0.53      0.55      0.67      0.57         0.49
  C8                          0.01      0.91      0.01      0.90         0.01
  C15                         0.01      0.72      0.01      0.85         0.01
  C21                         0.01      0.14      0.01      0.12         0.01
  

  Analysis begun on:  Tue Sep 21 11:08:42 2021
  Analysis ended on:  Tue Sep 21 11:08:42 2021
  Total elapsed time: < 1 sec