
  EPA STORM WATER MANAGEMENT MODEL - VERSION 5.1 (Build 5.3.0.dev0)
  --------------------------------------------------------------

  WARNING 09: time series interval greater than recording interval for Rain Gage RG1
  WARNING 09: time series interval greater than recording interval for Rain Gage RG2
  WARNING 09: time series interval greater than recording interval for Rain Gage RG3
  WARNING 09: time series interval greater than recording interval for Rain Gage RG4
  
  *********************************************************
  NOTE: The summary statistics displayed in this report are
  based on results found at every computational time step,  
  not just on results from each reporting time step.
  *********************************************************
  
  ****************
  Analysis Options
  ****************
  Flow Units ............... CMS
  Process Models:
    Rainfall/Runoff ........ YES
    RDII ................... NO
    Snowmelt ............... NO
    Groundwater ............ NO
    Flow Routing ........... YES
    Ponding Allowed ........ YES
    Water Quality .......... NO
  Infiltration Method ...... HORTON
  Flow Routing Method ...... DYNWAVE
  Surcharge Method ......... EXTRAN
  Starting Date ............ 08/28/2015 00:00:00
  Ending Date .............. 08/28/2015 23:40:00
  Antecedent Dry Days ...... 0.0
  Report Time Step ......... 00:01:00
  Wet Time Step ............ 00:01:00
  Dry Time Step ............ 00:01:00
  Routing Time Step ........ 5.00 sec
  Variable Time Step ....... YES
  Maximum Trials ........... 8
  Number of Threads ........ 1
  Head Tolerance ........... 0.001500 m
  
  
  **************************        Volume         Depth
  Runoff Quantity Continuity     hectare-m            mm
  **************************     ---------       -------
  Total Precipitation ......         2.210        12.263
  Evaporation Loss .........         0.000         0.000
  Infiltration Loss ........         0.000         0.000
  Surface Runoff ...........         2.182        12.109
  Final Storage ............         0.031         0.171
  Continuity Error (%) .....        -0.132
  
  
  **************************        Volume        Volume
  Flow Routing Continuity        hectare-m      10^6 ltr
  **************************     ---------     ---------
  Dry Weather Inflow .......         0.758         7.576
  Wet Weather Inflow .......         2.182        21.819
  Groundwater Inflow .......         0.000         0.000
  RDII Inflow ..............         0.000         0.000
  External Inflow ..........         0.000         0.000
  External Outflow .........         0.667         6.668
  Flooding Loss ............         1.252        12.524
  Evaporation Loss .........         0.000         0.000
  Exfiltration Loss ........         0.000         0.000
  Initial Stored Volume ....         0.000         0.000
  Final Stored Volume ......         0.778         7.777
  Continuity Error (%) .....         8.257
  
  
  *************************
  Highest Continuity Errors
  *************************
  Node T2 (25.61%)
  Node T3 (19.48%)
  Node T5 (16.71%)
  Node T4 (15.46%)
  Node J12 (8.38%)
  
  
  ***************************
  Time-Step Critical Elements
  ***************************
  None
  
  
  ********************************
  Highest Flow Instability Indexes
  ********************************
  All links are stable.
  
  
  *************************
  Routing Time Step Summary
  *************************
  Minimum Time Step           :     4.50 sec
  Average Time Step           :     5.00 sec
  Maximum Time Step           :     5.00 sec
  Percent in Steady State     :     0.00
  Average Iterations per Step :     2.24
  Percent Not Converging      :     0.43
  
  
  ***************************
  Subcatchment Runoff Summary
  ***************************
  
  ------------------------------------------------------------------------------------------------------------------------------
                            Total      Total      Total      Total     Imperv       Perv      Total       Total     Peak  Runoff
                           Precip      Runon       Evap      Infil     Runoff     Runoff     Runoff      Runoff   Runoff   Coeff
  Subcatchment                 mm         mm         mm         mm         mm         mm         mm    10^6 ltr      CMS
  ------------------------------------------------------------------------------------------------------------------------------
  SC01                      12.19       0.00       0.00       0.00      12.09       0.00      12.09        3.99     1.46   0.991
  SC02                      10.43       0.00       0.00       0.00      10.34       0.00      10.34        2.35     0.68   0.991
  SC03                      11.59       0.00       0.00       0.00      11.52       0.00      11.52        2.07     0.45   0.994
  SC04                      10.43       0.00       0.00       0.00      10.19       0.00      10.19        0.70     0.15   0.977
  SC05                      12.19       0.00       0.00       0.00      12.07       0.00      12.07        1.88     0.64   0.991
  SC06                      14.76       0.00       0.00       0.00      14.47       0.00      14.47        4.71     0.68   0.980
  SC07                      10.43       0.00       0.00       0.00      10.19       0.00      10.19        0.48     0.11   0.977
  SC08                      11.59       0.00       0.00       0.00      11.44       0.00      11.44        3.20     0.55   0.987
  SC09                      14.76       0.00       0.00       0.00      14.61       0.00      14.61        1.01     0.20   0.990
  SC010                     12.19       0.00       0.00       0.00      12.04       0.00      12.04        1.41     0.41   0.988
  
  
  ******************
  Node Depth Summary
  ******************
  
  ---------------------------------------------------------------------------------
                                 Average  Maximum  Maximum  Time of Max    Reported
                                   Depth    Depth      HGL   Occurrence   Max Depth
  Node                 Type       Meters   Meters   Meters  days hr:min      Meters
  ---------------------------------------------------------------------------------
  J1                   JUNCTION     0.05     0.26    34.26     0  18:21        0.26
  J3                   JUNCTION     0.02     0.12    18.12     0  20:49        0.12
  CSO7                 JUNCTION     0.11     1.20    35.20     0  19:00        1.20
  J5                   JUNCTION     0.05     0.16    32.16     0  19:12        0.16
  CSO9                 JUNCTION     0.15     2.00    42.00     0  18:10        2.00
  J8                   JUNCTION     0.08     0.28    36.28     0  18:17        0.28
  CSO8                 JUNCTION     0.11     2.00    34.00     0  18:25        2.00
  J10                  JUNCTION     0.06     0.27    29.27     0  19:22        0.27
  J13                  JUNCTION     0.04     0.21    29.21     0  19:11        0.21
  J15                  JUNCTION     0.09     0.35    15.35     0  18:25        0.35
  J16                  JUNCTION     0.05     0.28    30.28     0  18:21        0.28
  CSO10                JUNCTION     0.09     1.00    31.00     0  18:20        1.00
  J12                  JUNCTION     0.23     1.05    27.05     0  19:27        1.05
  J4                   JUNCTION     0.10     1.44    34.44     0  19:03        0.75
  J6                   JUNCTION     0.01     0.07    25.07     0  20:53        0.07
  J2                   JUNCTION     0.00     0.00    25.00     0  00:00        0.00
  J19                  JUNCTION     0.08     0.17     8.17     0  18:54        0.17
  J9                   JUNCTION     0.02     0.11    29.11     0  21:05        0.11
  J14                  JUNCTION     0.02     0.16    20.16     0  20:01        0.16
  J17                  JUNCTION     0.01     0.08    20.08     0  20:44        0.08
  J7                   JUNCTION     0.06     0.23    39.23     0  18:23        0.23
  J11                  JUNCTION     0.06     0.29    31.29     0  19:22        0.29
  J18                  JUNCTION     0.04     0.16    29.16     0  18:29        0.16
  Out_to_WWTP          OUTFALL      0.07     0.17     6.17     0  21:01        0.17
  T5                   STORAGE      2.67     5.00    32.00     0  17:01        5.00
  T4                   STORAGE      2.40     5.00    32.00     0  18:37        5.00
  T6                   STORAGE      2.94     5.00    36.00     0  12:45        5.00
  T3                   STORAGE      1.66     5.00    27.00     0  19:23        5.00
  T2                   STORAGE      1.80     5.00    26.00     0  19:13        5.00
  T1                   STORAGE      1.12     5.00    15.00     0  18:53        5.00
  
  
  *******************
  Node Inflow Summary
  *******************
  
  -------------------------------------------------------------------------------------------------
                                  Maximum  Maximum                  Lateral       Total        Flow
                                  Lateral    Total  Time of Max      Inflow      Inflow     Balance
                                   Inflow   Inflow   Occurrence      Volume      Volume       Error
  Node                 Type           CMS      CMS  days hr:min    10^6 ltr    10^6 ltr     Percent
  -------------------------------------------------------------------------------------------------
  J1                   JUNCTION     0.658    0.658     0  18:21        2.98        2.98       0.007
  J3                   JUNCTION     0.000    0.152     0  20:03           0        2.02       1.693
  CSO7                 JUNCTION     0.113    0.113     0  19:11        1.05        1.05       0.017
  J5                   JUNCTION     0.156    0.227     0  19:11       0.951        1.95       0.052
  CSO9                 JUNCTION     0.205    0.205     0  18:11        1.39        1.39       0.001
  J8                   JUNCTION     0.707    0.793     0  18:11        6.54         7.9       0.046
  CSO8                 JUNCTION     0.553    0.553     0  19:16        3.65        3.65      -0.037
  J10                  JUNCTION     0.463    0.859     0  19:16        2.82        6.47      -0.126
  J13                  JUNCTION     0.691    0.691     0  19:11        3.26        3.26      -0.044
  J15                  JUNCTION     0.000    1.529     0  18:22           0        9.12       0.762
  J16                  JUNCTION     1.469    1.469     0  18:21        5.07        5.07      -0.093
  CSO10                JUNCTION     0.412    0.412     0  18:21        1.69        1.69      -0.008
  J12                  JUNCTION     0.000    0.804     0  19:22           0        7.43       9.145
  J4                   JUNCTION     0.000    0.085     0  19:01           0       0.998       0.083
  J6                   JUNCTION     0.000    0.028     0  20:00           0       0.369       0.964
  J2                   JUNCTION     0.000    0.000     0  00:00           0           0       0.000 ltr
  J19                  JUNCTION     0.000    0.271     0  18:53           0        6.68       0.166
  J9                   JUNCTION     0.000    0.075     0  20:00           0       0.981       3.138
  J14                  JUNCTION     0.000    0.124     0  20:00           0        1.66       0.404
  J17                  JUNCTION     0.000    0.033     0  20:00           0       0.439       1.751
  J7                   JUNCTION     0.000    0.127     0  18:22           0        1.36       0.089
  J11                  JUNCTION     0.000    0.485     0  19:22           0        3.65       0.105
  J18                  JUNCTION     0.000    0.202     0  18:29           0        1.64      -0.021
  Out_to_WWTP          OUTFALL      0.000    0.271     0  18:55           0        6.67       0.000
  T5                   STORAGE      0.000    0.590     0  18:21           0        2.98      20.066
  T4                   STORAGE      0.000    0.216     0  19:12           0        1.95      18.284
  T6                   STORAGE      0.000    0.761     0  18:17           0         7.9       8.821
  T3                   STORAGE      0.000    1.025     0  19:30           0         6.8      24.186
  T2                   STORAGE      0.000    0.634     0  19:11           0        3.26      34.430
  T1                   STORAGE      0.000    1.102     0  18:25           0        9.05       7.044
  
  
  **********************
  Node Surcharge Summary
  **********************
  
  Surcharging occurs when water rises above the top of the highest conduit.
  ---------------------------------------------------------------------
                                               Max. Height   Min. Depth
                                   Hours       Above Crown    Below Rim
  Node                 Type      Surcharged         Meters       Meters
  ---------------------------------------------------------------------
  CSO7                 JUNCTION        0.93          0.945        0.000
  CSO9                 JUNCTION        1.59          1.682        0.000
  CSO8                 JUNCTION        0.82          1.547        0.000
  CSO10                JUNCTION        0.31          0.560        0.000
  J4                   JUNCTION        0.93          1.141        0.559
  
  
  *********************
  Node Flooding Summary
  *********************
  
  Flooding refers to all water that overflows a node, whether it ponds or not.
  --------------------------------------------------------------------------
                                                             Total   Maximum
                                 Maximum   Time of Max       Flood    Ponded
                        Hours       Rate    Occurrence      Volume     Depth
  Node                 Flooded       CMS   days hr:min    10^6 ltr    Meters
  --------------------------------------------------------------------------
  CSO7                    0.80     0.042      0  19:11       0.051     0.000
  CSO9                    0.32     0.082      0  18:11       0.026     0.000
  CSO8                    0.07     0.072      0  19:16       0.007     0.000
  CSO10                   0.18     0.214      0  18:21       0.049     0.000
  T5                      6.64     0.590      0  18:22       1.979     0.000
  T4                      2.39     0.216      0  19:12       0.868     0.000
  T6                      8.33     0.761      0  18:17       5.829     0.000
  T3                      1.15     1.025      0  19:30       1.320     0.000
  T2                      1.51     0.559      0  19:16       1.107     0.000
  T1                      1.92     0.331      0  19:48       1.288     0.000
  
  
  **********************
  Storage Volume Summary
  **********************
  
  --------------------------------------------------------------------------------------------------
                         Average     Avg  Evap Exfil       Maximum     Max    Time of Max    Maximum
                          Volume    Pcnt  Pcnt  Pcnt        Volume    Pcnt     Occurrence    Outflow
  Storage Unit           1000 m3    Full  Loss  Loss       1000 m3    Full    days hr:min        CMS
  --------------------------------------------------------------------------------------------------
  T5                       0.267      53     0     0         0.500     100       0  17:01      0.000
  T4                       0.240      48     0     0         0.500     100       0  18:37      0.028
  T6                       0.352      59     0     0         0.600     100       0  12:45      0.075
  T3                       0.862      33     0     0         2.600     100       0  19:23      0.124
  T2                       0.359      36     0     0         1.000     100       0  19:13      0.033
  T1                       0.157      22     0     0         0.700     100       0  18:53      0.271
  
  
  ***********************
  Outfall Loading Summary
  ***********************
  
  -----------------------------------------------------------
                         Flow       Avg       Max       Total
                         Freq      Flow      Flow      Volume
  Outfall Node           Pcnt       CMS       CMS    10^6 ltr
  -----------------------------------------------------------
  Out_to_WWTP           99.43     0.079     0.271       6.668
  -----------------------------------------------------------
  System                99.43     0.079     0.271       6.668
  
  
  ********************
  Link Flow Summary
  ********************
  
  -----------------------------------------------------------------------------
                                 Maximum  Time of Max   Maximum    Max/    Max/
                                  |Flow|   Occurrence   |Veloc|    Full    Full
  Link                 Type          CMS  days hr:min     m/sec    Flow   Depth
  -----------------------------------------------------------------------------
  C1                   CONDUIT     0.000     0  00:00      0.00    0.00    0.06
  C6                   CONDUIT     0.071     0  19:12      1.29    1.13    0.76
  C2                   CONDUIT     0.028     0  20:53      1.08    0.03    0.16
  C9                   CONDUIT     0.127     0  18:23      1.29    0.43    0.51
  C16                  CONDUIT     0.468     0  19:23      1.74    0.04    0.14
  C3                   CONDUIT     0.125     0  20:02      2.07    0.05    0.14
  C19                  CONDUIT     0.033     0  20:44      0.66    0.01    0.18
  C11                  CONDUIT     0.152     0  20:49      1.60    0.01    0.09
  C20                  CONDUIT     1.355     0  18:22      4.99    0.04    0.15
  C22                  CONDUIT     0.202     0  18:29      1.65    0.09    0.32
  C12                  CONDUIT     0.075     0  21:05      0.12    0.01    0.28
  C17                  CONDUIT     0.804     0  19:22      2.88    0.04    0.33
  C10                  CONDUIT     0.761     0  18:17      0.93    0.08    0.59
  C13                  CONDUIT     1.025     0  19:30      0.66    0.06    0.76
  C18                  CONDUIT     0.634     0  19:11      1.01    0.02    0.55
  C23                  CONDUIT     1.102     0  18:25      1.87    0.12    0.62
  C4                   CONDUIT     0.590     0  18:21      1.14    0.14    0.63
  C7                   CONDUIT     0.216     0  19:12      0.80    0.05    0.58
  C14                  CONDUIT     0.271     0  18:55      2.08    0.02    0.09
  C5                   CONDUIT     0.085     0  19:01      1.67    1.45    1.00
  C8                   CONDUIT     0.127     0  18:22      1.83    1.60    0.86
  C15                  CONDUIT     0.485     0  19:22      3.51    1.54    0.82
  C21                  CONDUIT     0.202     0  18:29      1.87    1.16    0.69
  V4                   ORIFICE     0.028     0  20:00                      0.35
  V5                   ORIFICE     0.000     0  00:00                      0.00
  V1                   ORIFICE     0.271     0  18:53                      1.00
  V6                   ORIFICE     0.075     0  20:00                      0.43
  V3                   ORIFICE     0.124     0  20:00                      0.65
  V2                   ORIFICE     0.033     0  20:00                      0.24
  
  
  ***************************
  Flow Classification Summary
  ***************************
  
  -------------------------------------------------------------------------------------
                      Adjusted    ---------- Fraction of Time in Flow Class ---------- 
                       /Actual         Up    Down  Sub   Sup   Up    Down  Norm  Inlet 
  Conduit               Length    Dry  Dry   Dry   Crit  Crit  Crit  Crit  Ltd   Ctrl  
  -------------------------------------------------------------------------------------
  C1                      1.00   0.84  0.16  0.00  0.00  0.00  0.00  0.00  0.00  0.00
  C6                      1.00   0.00  0.00  0.00  0.05  0.95  0.00  0.00  0.00  0.00
  C2                      1.00   0.84  0.00  0.00  0.00  0.16  0.00  0.00  0.16  0.00
  C9                      1.00   0.00  0.00  0.00  1.00  0.00  0.00  0.00  1.00  0.00
  C16                     1.00   0.00  0.25  0.00  0.50  0.24  0.00  0.00  0.25  0.00
  C3                      1.00   0.84  0.00  0.00  0.00  0.16  0.00  0.00  0.00  0.00
  C19                     1.00   0.00  0.84  0.00  0.16  0.00  0.00  0.00  0.16  0.00
  C11                     1.00   0.00  0.84  0.00  0.01  0.15  0.00  0.00  0.16  0.00
  C20                     1.00   0.00  0.00  0.00  0.14  0.86  0.00  0.00  0.99  0.00
  C22                     1.00   0.00  0.00  0.00  0.80  0.20  0.00  0.00  1.00  0.00
  C12                     1.00   0.00  0.84  0.00  0.16  0.00  0.00  0.00  0.16  0.00
  C17                     1.00   0.00  0.00  0.00  0.20  0.80  0.00  0.00  0.92  0.00
  C10                     1.00   0.00  0.00  0.00  0.98  0.02  0.00  0.00  0.98  0.00
  C13                     1.00   0.00  0.00  0.00  0.93  0.07  0.00  0.00  0.73  0.00
  C18                     1.00   0.00  0.00  0.00  0.97  0.03  0.00  0.00  0.98  0.00
  C23                     1.00   0.00  0.00  0.00  0.39  0.61  0.00  0.00  0.92  0.00
  C4                      1.00   0.00  0.00  0.00  0.98  0.02  0.00  0.00  0.99  0.00
  C7                      1.00   0.00  0.00  0.00  0.97  0.03  0.00  0.00  0.98  0.00
  C14                     1.00   0.00  0.00  0.00  0.00  1.00  0.00  0.00  0.41  0.00
  C5                      1.00   0.00  0.00  0.00  0.93  0.07  0.00  0.00  0.94  0.00
  C8                      1.00   0.00  0.00  0.00  0.28  0.72  0.00  0.00  0.00  0.00
  C15                     1.00   0.25  0.00  0.00  0.00  0.75  0.00  0.00  0.00  0.00
  C21                     1.00   0.00  0.00  0.00  0.00  1.00  0.00  0.00  0.00  0.00
  
  
  *************************
  Conduit Surcharge Summary
  *************************
  
  ----------------------------------------------------------------------------
                                                           Hours        Hours 
                         --------- Hours Full --------   Above Full   Capacity
  Conduit                Both Ends  Upstream  Dnstream   Normal Flow   Limited
  ----------------------------------------------------------------------------
  C6                          0.01      0.93      0.01      0.83         0.01
  C10                         0.01      0.01     15.44      0.01         0.01
  C13                         0.01      0.01      6.34      0.01         0.01
  C18                         0.01      0.01      9.53      0.01         0.01
  C23                         0.01      0.01      5.35      0.01         0.01
  C4                          0.01      0.01     15.77      0.01         0.01
  C7                          0.01      0.01     15.10      0.01         0.01
  C5                          0.92      0.93      1.01      0.94         0.88
  C8                          0.01      1.59      0.01      1.59         0.01
  C15                         0.01      0.82      0.01      0.95         0.01
  C21                         0.01      0.31      0.01      0.27         0.01
  

  Analysis begun on:  Tue Sep 21 11:13:25 2021
  Analysis ended on:  Tue Sep 21 11:13:25 2021
  Total elapsed time: < 1 sec