
  EPA STORM WATER MANAGEMENT MODEL - VERSION 5.1 (Build 5.3.0.dev0)
  --------------------------------------------------------------

  WARNING 09: time series interval greater than recording interval for Rain Gage RG1
  WARNING 09: time series interval greater than recording interval for Rain Gage RG2
  WARNING 09: time series interval greater than recording interval for Rain Gage RG3
  WARNING 09: time series interval greater than recording interval for Rain Gage RG4
  
  *********************************************************
  NOTE: The summary statistics displayed in this report are
  based on results found at every computational time step,  
  not just on results from each reporting time step.
  *********************************************************
  
  ****************
  Analysis Options
  ****************
  Flow Units ............... CMS
  Process Models:
    Rainfall/Runoff ........ YES
    RDII ................... NO
    Snowmelt ............... NO
    Groundwater ............ NO
    Flow Routing ........... YES
    Ponding Allowed ........ YES
    Water Quality .......... NO
  Infiltration Method ...... HORTON
  Flow Routing Method ...... DYNWAVE
  Surcharge Method ......... EXTRAN
  Starting Date ............ 08/28/2015 00:00:00
  Ending Date .............. 08/28/2015 23:40:00
  Antecedent Dry Days ...... 0.0
  Report Time Step ......... 00:01:00
  Wet Time Step ............ 00:01:00
  Dry Time Step ............ 00:01:00
  Routing Time Step ........ 5.00 sec
  Variable Time Step ....... YES
  Maximum Trials ........... 8
  Number of Threads ........ 1
  Head Tolerance ........... 0.001500 m
  
  
  **************************        Volume         Depth
  Runoff Quantity Continuity     hectare-m            mm
  **************************     ---------       -------
  Total Precipitation ......         1.321         7.330
  Evaporation Loss .........         0.000         0.000
  Infiltration Loss ........         0.000         0.000
  Surface Runoff ...........         0.846         4.695
  Final Storage ............         0.490         2.719
  Continuity Error (%) .....        -1.137
  
  
  **************************        Volume        Volume
  Flow Routing Continuity        hectare-m      10^6 ltr
  **************************     ---------     ---------
  Dry Weather Inflow .......         0.758         7.576
  Wet Weather Inflow .......         0.831         8.314
  Groundwater Inflow .......         0.000         0.000
  RDII Inflow ..............         0.000         0.000
  External Inflow ..........         0.000         0.000
  External Outflow .........         0.234         2.341
  Flooding Loss ............         0.393         3.931
  Evaporation Loss .........         0.000         0.000
  Exfiltration Loss ........         0.000         0.000
  Initial Stored Volume ....         0.000         0.000
  Final Stored Volume ......         0.732         7.319
  Continuity Error (%) .....        14.466
  
  
  *************************
  Highest Continuity Errors
  *************************
  Node T2 (48.86%)
  Node T3 (35.35%)
  Node T4 (32.84%)
  Node T5 (26.58%)
  Node T6 (21.88%)
  
  
  ***************************
  Time-Step Critical Elements
  ***************************
  None
  
  
  ********************************
  Highest Flow Instability Indexes
  ********************************
  All links are stable.
  
  
  *************************
  Routing Time Step Summary
  *************************
  Minimum Time Step           :     4.50 sec
  Average Time Step           :     5.00 sec
  Maximum Time Step           :     5.00 sec
  Percent in Steady State     :     0.00
  Average Iterations per Step :     2.03
  Percent Not Converging      :     0.04
  
  
  ***************************
  Subcatchment Runoff Summary
  ***************************
  
  ------------------------------------------------------------------------------------------------------------------------------
                            Total      Total      Total      Total     Imperv       Perv      Total       Total     Peak  Runoff
                           Precip      Runon       Evap      Infil     Runoff     Runoff     Runoff      Runoff   Runoff   Coeff
  Subcatchment                 mm         mm         mm         mm         mm         mm         mm    10^6 ltr      CMS
  ------------------------------------------------------------------------------------------------------------------------------
  SC01                       7.28       0.00       0.00       0.00       5.38       0.00       5.38        1.78     1.37   0.739
  SC02                       5.69       0.00       0.00       0.00       3.66       0.00       3.66        0.83     0.79   0.644
  SC03                       7.13       0.00       0.00       0.00       5.53       0.00       5.53        1.00     1.00   0.776
  SC04                       5.69       0.00       0.00       0.00       2.94       0.00       2.94        0.20     0.13   0.516
  SC05                       7.28       0.00       0.00       0.00       5.24       0.00       5.24        0.82     0.60   0.720
  SC06                       9.07       0.00       0.00       0.00       4.63       0.00       4.63        1.51     1.08   0.510
  SC07                       5.69       0.00       0.00       0.00       2.94       0.00       2.94        0.14     0.09   0.517
  SC08                       7.13       0.00       0.00       0.00       4.40       0.00       4.40        1.23     1.07   0.617
  SC09                       9.07       0.00       0.00       0.00       5.60       0.00       5.60        0.39     0.30   0.617
  SC010                      7.28       0.00       0.00       0.00       4.87       0.00       4.87        0.57     0.37   0.669
  
  
  ******************
  Node Depth Summary
  ******************
  
  ---------------------------------------------------------------------------------
                                 Average  Maximum  Maximum  Time of Max    Reported
                                   Depth    Depth      HGL   Occurrence   Max Depth
  Node                 Type       Meters   Meters   Meters  days hr:min      Meters
  ---------------------------------------------------------------------------------
  J1                   JUNCTION     0.05     0.25    34.25     0  23:26        0.25
  J3                   JUNCTION     0.00     0.00    18.00     0  00:00        0.00
  CSO7                 JUNCTION     0.07     1.20    35.20     0  23:36        1.20
  J5                   JUNCTION     0.04     0.14    32.14     0  23:39        0.14
  CSO9                 JUNCTION     0.09     2.00    42.00     0  23:16        2.00
  J8                   JUNCTION     0.07     0.34    36.34     0  23:37        0.34
  CSO8                 JUNCTION     0.07     2.00    34.00     0  23:25        2.00
  J10                  JUNCTION     0.05     0.34    29.34     0  23:37        0.34
  J13                  JUNCTION     0.04     0.22    29.22     0  23:36        0.22
  J15                  JUNCTION     0.06     0.37    15.37     0  23:33        0.37
  J16                  JUNCTION     0.04     0.27    30.27     0  23:26        0.27
  CSO10                JUNCTION     0.07     1.00    31.00     0  23:25        1.00
  J12                  JUNCTION     0.06     0.36    26.36     0  23:38        0.36
  J4                   JUNCTION     0.08     0.27    33.27     0  23:40        0.27
  J6                   JUNCTION     0.00     0.00    25.00     0  00:00        0.00
  J2                   JUNCTION     0.00     0.00    25.00     0  00:00        0.00
  J19                  JUNCTION     0.06     0.15     8.15     0  23:40        0.15
  J9                   JUNCTION     0.00     0.00    29.00     0  00:00        0.00
  J14                  JUNCTION     0.00     0.00    20.00     0  00:00        0.00
  J17                  JUNCTION     0.00     0.00    20.00     0  00:00        0.00
  J7                   JUNCTION     0.05     0.23    39.23     0  23:40        0.23
  J11                  JUNCTION     0.04     0.29    31.29     0  23:40        0.29
  J18                  JUNCTION     0.03     0.16    29.16     0  23:40        0.16
  Out_to_WWTP          OUTFALL      0.05     0.15     6.15     0  23:40        0.15
  T5                   STORAGE      3.44     5.00    32.00     0  14:26        5.00
  T4                   STORAGE      3.17     5.00    32.00     0  17:20        5.00
  T6                   STORAGE      3.92     5.00    36.00     0  10:37        5.00
  T3                   STORAGE      1.60     3.46    25.46     0  23:40        3.46
  T2                   STORAGE      2.15     4.34    25.34     0  23:40        4.34
  T1                   STORAGE      0.13     2.87    12.87     0  23:40        2.87
  
  
  *******************
  Node Inflow Summary
  *******************
  
  -------------------------------------------------------------------------------------------------
                                  Maximum  Maximum                  Lateral       Total        Flow
                                  Lateral    Total  Time of Max      Inflow      Inflow     Balance
                                   Inflow   Inflow   Occurrence      Volume      Volume       Error
  Node                 Type           CMS      CMS  days hr:min    10^6 ltr    10^6 ltr     Percent
  -------------------------------------------------------------------------------------------------
  J1                   JUNCTION     0.606    0.606     0  23:26         1.9         1.9       0.978
  J3                   JUNCTION     0.000    0.000     0  00:00           0           0       0.000 ltr
  CSO7                 JUNCTION     0.088    0.088     0  23:36       0.702       0.702       0.365
  J5                   JUNCTION     0.126    0.164     0  23:38       0.447        1.13       1.295
  CSO9                 JUNCTION     0.306    0.306     0  23:36       0.761       0.761       0.563
  J8                   JUNCTION     1.089    1.216     0  23:36        3.31        3.98       2.221
  CSO8                 JUNCTION     1.069    1.069     0  23:36        1.65        1.65       0.494
  J10                  JUNCTION     0.997    1.451     0  23:36        1.73        3.09       3.532
  J13                  JUNCTION     0.792    0.792     0  23:36        1.73        1.73       1.655
  J15                  JUNCTION     0.000    1.441     0  23:26           0        3.51       7.738
  J16                  JUNCTION     1.377    1.377     0  23:26        2.83        2.83       1.191
  CSO10                JUNCTION     0.374    0.374     0  23:36       0.834       0.834       0.934
  J12                  JUNCTION     0.000    1.287     0  23:37           0        2.99       7.337
  J4                   JUNCTION     0.000    0.082     0  23:37           0       0.699       2.386
  J6                   JUNCTION     0.000    0.000     0  00:00           0           0       0.000 ltr
  J2                   JUNCTION     0.000    0.000     0  00:00           0           0       0.000 ltr
  J19                  JUNCTION     0.000    0.204     0  23:40           0        2.35       0.434
  J9                   JUNCTION     0.000    0.000     0  00:00           0           0       0.000 ltr
  J14                  JUNCTION     0.000    0.000     0  00:00           0           0       0.000 ltr
  J17                  JUNCTION     0.000    0.000     0  00:00           0           0       0.000 ltr
  J7                   JUNCTION     0.000    0.127     0  23:40           0       0.694       3.837
  J11                  JUNCTION     0.000    0.486     0  23:40           0        1.44       5.713
  J18                  JUNCTION     0.000    0.202     0  23:40           0       0.732       3.102
  Out_to_WWTP          OUTFALL      0.000    0.200     0  23:40           0        2.34       0.000
  T5                   STORAGE      0.000    0.549     0  23:26           0        1.88      36.211
  T4                   STORAGE      0.000    0.161     0  23:40           0        1.12      48.899
  T6                   STORAGE      0.000    1.118     0  23:37           0        3.89      28.007
  T3                   STORAGE      0.000    1.196     0  23:38           0        2.78      54.669
  T2                   STORAGE      0.000    0.707     0  23:37           0         1.7      95.560
  T1                   STORAGE      0.000    1.205     0  23:33           0        3.25      18.217
  
  
  **********************
  Node Surcharge Summary
  **********************
  
  Surcharging occurs when water rises above the top of the highest conduit.
  ---------------------------------------------------------------------
                                               Max. Height   Min. Depth
                                   Hours       Above Crown    Below Rim
  Node                 Type      Surcharged         Meters       Meters
  ---------------------------------------------------------------------
  CSO7                 JUNCTION        0.07          0.945        0.000
  CSO9                 JUNCTION        0.39          1.682        0.000
  CSO8                 JUNCTION        0.24          1.547        0.000
  CSO10                JUNCTION        0.26          0.560        0.000
  
  
  *********************
  Node Flooding Summary
  *********************
  
  Flooding refers to all water that overflows a node, whether it ponds or not.
  --------------------------------------------------------------------------
                                                             Total   Maximum
                                 Maximum   Time of Max       Flood    Ponded
                        Hours       Rate    Occurrence      Volume     Depth
  Node                 Flooded       CMS   days hr:min    10^6 ltr    Meters
  --------------------------------------------------------------------------
  CSO7                    0.02     0.025      0  23:36       0.001     0.000
  CSO9                    0.32     0.178      0  23:36       0.063     0.000
  CSO8                    0.21     0.583      0  23:36       0.206     0.000
  CSO10                   0.24     0.173      0  23:26       0.094     0.000
  T5                      9.23     0.548      0  23:26       0.882     0.000
  T4                      6.33     0.161      0  23:40       0.250     0.000
  T6                     13.04     1.118      0  23:37       2.442     0.000
  
  
  **********************
  Storage Volume Summary
  **********************
  
  --------------------------------------------------------------------------------------------------
                         Average     Avg  Evap Exfil       Maximum     Max    Time of Max    Maximum
                          Volume    Pcnt  Pcnt  Pcnt        Volume    Pcnt     Occurrence    Outflow
  Storage Unit           1000 m3    Full  Loss  Loss       1000 m3    Full    days hr:min        CMS
  --------------------------------------------------------------------------------------------------
  T5                       0.344      69     0     0         0.500     100       0  14:26      0.000
  T4                       0.317      63     0     0         0.500     100       0  17:20      0.000
  T6                       0.470      78     0     0         0.600     100       0  10:37      0.000
  T3                       0.833      32     0     0         1.799      69       0  23:40      0.000
  T2                       0.429      43     0     0         0.868      87       0  23:40      0.000
  T1                       0.018       3     0     0         0.402      57       0  23:40      0.204
  
  
  ***********************
  Outfall Loading Summary
  ***********************
  
  -----------------------------------------------------------
                         Flow       Avg       Max       Total
                         Freq      Flow      Flow      Volume
  Outfall Node           Pcnt       CMS       CMS    10^6 ltr
  -----------------------------------------------------------
  Out_to_WWTP           99.44     0.028     0.200       2.341
  -----------------------------------------------------------
  System                99.44     0.028     0.200       2.341
  
  
  ********************
  Link Flow Summary
  ********************
  
  -----------------------------------------------------------------------------
                                 Maximum  Time of Max   Maximum    Max/    Max/
                                  |Flow|   Occurrence   |Veloc|    Full    Full
  Link                 Type          CMS  days hr:min     m/sec    Flow   Depth
  -----------------------------------------------------------------------------
  C1                   CONDUIT     0.000     0  00:00      0.00    0.00    0.00
  C6                   CONDUIT     0.059     0  23:40      1.16    0.94    0.68
  C2                   CONDUIT     0.000     0  00:00      0.00    0.00    0.00
  C9                   CONDUIT     0.127     0  23:40      1.32    0.43    0.57
  C16                  CONDUIT     0.485     0  23:40      1.62    0.05    0.16
  C3                   CONDUIT     0.000     0  00:00      0.00    0.00    0.00
  C19                  CONDUIT     0.000     0  00:00      0.00    0.00    0.18
  C11                  CONDUIT     0.000     0  00:00      0.00    0.00    0.09
  C20                  CONDUIT     1.258     0  23:26      4.78    0.04    0.16
  C22                  CONDUIT     0.202     0  23:40      1.72    0.09    0.33
  C12                  CONDUIT     0.000     0  00:00      0.00    0.00    0.09
  C17                  CONDUIT     1.287     0  23:37      3.70    0.06    0.17
  C10                  CONDUIT     1.118     0  23:37      1.24    0.12    0.61
  C13                  CONDUIT     1.196     0  23:38      1.74    0.07    0.59
  C18                  CONDUIT     0.707     0  23:37      1.64    0.03    0.56
  C23                  CONDUIT     1.205     0  23:33      2.51    0.13    0.62
  C4                   CONDUIT     0.549     0  23:26      1.38    0.13    0.62
  C7                   CONDUIT     0.161     0  23:40      1.21    0.04    0.57
  C14                  CONDUIT     0.200     0  23:40      1.89    0.01    0.07
  C5                   CONDUIT     0.082     0  23:37      1.70    1.40    1.00
  C8                   CONDUIT     0.127     0  23:40      1.83    1.60    0.86
  C15                  CONDUIT     0.486     0  23:40      3.75    1.54    0.82
  C21                  CONDUIT     0.202     0  23:40      1.87    1.16    0.69
  V4                   ORIFICE     0.000     0  00:00                      0.00
  V5                   ORIFICE     0.000     0  00:00                      0.00
  V1                   ORIFICE     0.204     0  23:40                      1.00
  V6                   ORIFICE     0.000     0  00:00                      0.00
  V3                   ORIFICE     0.000     0  00:00                      0.00
  V2                   ORIFICE     0.000     0  00:00                      0.00
  
  
  ***************************
  Flow Classification Summary
  ***************************
  
  -------------------------------------------------------------------------------------
                      Adjusted    ---------- Fraction of Time in Flow Class ---------- 
                       /Actual         Up    Down  Sub   Sup   Up    Down  Norm  Inlet 
  Conduit               Length    Dry  Dry   Dry   Crit  Crit  Crit  Crit  Ltd   Ctrl  
  -------------------------------------------------------------------------------------
  C1                      1.00   1.00  0.00  0.00  0.00  0.00  0.00  0.00  0.00  0.00
  C6                      1.00   0.00  0.00  0.00  0.02  0.98  0.00  0.00  0.00  0.00
  C2                      1.00   1.00  0.00  0.00  0.00  0.00  0.00  0.00  0.00  0.00
  C9                      1.00   0.00  0.00  0.00  1.00  0.00  0.00  0.00  1.00  0.00
  C16                     1.00   0.00  0.00  0.00  0.87  0.13  0.00  0.00  0.73  0.00
  C3                      1.00   1.00  0.00  0.00  0.00  0.00  0.00  0.00  0.00  0.00
  C19                     1.00   0.00  1.00  0.00  0.00  0.00  0.00  0.00  0.00  0.00
  C11                     1.00   0.00  1.00  0.00  0.00  0.00  0.00  0.00  0.00  0.00
  C20                     1.00   0.00  0.00  0.00  0.00  1.00  0.00  0.00  0.98  0.00
  C22                     1.00   0.00  0.00  0.00  0.79  0.21  0.00  0.00  1.00  0.00
  C12                     1.00   0.00  1.00  0.00  0.00  0.00  0.00  0.00  0.00  0.00
  C17                     1.00   0.00  0.00  0.00  0.00  1.00  0.00  0.00  0.94  0.00
  C10                     1.00   0.00  0.00  0.00  0.98  0.02  0.00  0.00  0.99  0.00
  C13                     1.00   0.00  0.00  0.00  0.97  0.03  0.00  0.00  0.97  0.00
  C18                     1.00   0.00  0.00  0.00  0.98  0.02  0.00  0.00  0.99  0.00
  C23                     1.00   0.00  0.00  0.00  0.19  0.81  0.00  0.00  0.96  0.00
  C4                      1.00   0.00  0.00  0.00  0.98  0.02  0.00  0.00  0.99  0.00
  C7                      1.00   0.00  0.00  0.00  0.98  0.02  0.00  0.00  0.98  0.00
  C14                     1.00   0.00  0.00  0.00  0.00  1.00  0.00  0.00  0.53  0.00
  C5                      1.00   0.00  0.00  0.00  0.91  0.09  0.00  0.00  0.97  0.00
  C8                      1.00   0.00  0.00  0.00  0.06  0.94  0.00  0.00  0.01  0.00
  C15                     1.00   0.00  0.00  0.00  0.03  0.97  0.00  0.00  0.03  0.00
  C21                     1.00   0.00  0.00  0.00  0.00  1.00  0.00  0.00  0.00  0.00
  
  
  *************************
  Conduit Surcharge Summary
  *************************
  
  ----------------------------------------------------------------------------
                                                           Hours        Hours 
                         --------- Hours Full --------   Above Full   Capacity
  Conduit                Both Ends  Upstream  Dnstream   Normal Flow   Limited
  ----------------------------------------------------------------------------
  C10                         0.01      0.01     21.25      0.01         0.01
  C13                         0.01      0.01      8.47      0.01         0.01
  C18                         0.01      0.01     12.58      0.01         0.01
  C23                         0.01      0.01      0.12      0.01         0.01
  C4                          0.01      0.01     21.61      0.01         0.01
  C7                          0.01      0.01     21.03      0.01         0.01
  C5                          0.02      0.07      0.02      0.07         0.02
  C8                          0.01      0.39      0.01      0.39         0.01
  C15                         0.01      0.24      0.01      0.24         0.01
  C21                         0.01      0.26      0.01      0.24         0.01
  

  Analysis begun on:  Tue Sep 21 11:20:03 2021
  Analysis ended on:  Tue Sep 21 11:20:04 2021
  Total elapsed time: 00:00:01