
  EPA STORM WATER MANAGEMENT MODEL - VERSION 5.1 (Build 5.3.0.dev0)
  --------------------------------------------------------------

  WARNING 09: time series interval greater than recording interval for Rain Gage RG1
  WARNING 09: time series interval greater than recording interval for Rain Gage RG2
  WARNING 09: time series interval greater than recording interval for Rain Gage RG3
  WARNING 09: time series interval greater than recording interval for Rain Gage RG4
  
  *********************************************************
  NOTE: The summary statistics displayed in this report are
  based on results found at every computational time step,  
  not just on results from each reporting time step.
  *********************************************************
  
  ****************
  Analysis Options
  ****************
  Flow Units ............... CMS
  Process Models:
    Rainfall/Runoff ........ YES
    RDII ................... NO
    Snowmelt ............... NO
    Groundwater ............ NO
    Flow Routing ........... YES
    Ponding Allowed ........ YES
    Water Quality .......... NO
  Infiltration Method ...... HORTON
  Flow Routing Method ...... DYNWAVE
  Surcharge Method ......... EXTRAN
  Starting Date ............ 08/28/2015 00:00:00
  Ending Date .............. 08/28/2015 23:40:00
  Antecedent Dry Days ...... 0.0
  Report Time Step ......... 00:01:00
  Wet Time Step ............ 00:01:00
  Dry Time Step ............ 00:01:00
  Routing Time Step ........ 5.00 sec
  Variable Time Step ....... YES
  Maximum Trials ........... 8
  Number of Threads ........ 1
  Head Tolerance ........... 0.001500 m
  
  
  **************************        Volume         Depth
  Runoff Quantity Continuity     hectare-m            mm
  **************************     ---------       -------
  Total Precipitation ......         1.840        10.211
  Evaporation Loss .........         0.000         0.000
  Infiltration Loss ........         0.000         0.000
  Surface Runoff ...........         1.761         9.772
  Final Storage ............         0.080         0.444
  Continuity Error (%) .....        -0.058
  
  
  **************************        Volume        Volume
  Flow Routing Continuity        hectare-m      10^6 ltr
  **************************     ---------     ---------
  Dry Weather Inflow .......         0.758         7.576
  Wet Weather Inflow .......         1.760        17.603
  Groundwater Inflow .......         0.000         0.000
  RDII Inflow ..............         0.000         0.000
  External Inflow ..........         0.000         0.000
  External Outflow .........         0.446         4.465
  Flooding Loss ............         1.057        10.566
  Evaporation Loss .........         0.000         0.000
  Exfiltration Loss ........         0.000         0.000
  Initial Stored Volume ....         0.000         0.000
  Final Stored Volume ......         0.762         7.617
  Continuity Error (%) .....        10.047
  
  
  *************************
  Highest Continuity Errors
  *************************
  Node T2 (31.12%)
  Node T3 (22.88%)
  Node T5 (22.71%)
  Node T4 (19.42%)
  Node T6 (12.65%)
  
  
  ***************************
  Time-Step Critical Elements
  ***************************
  None
  
  
  ********************************
  Highest Flow Instability Indexes
  ********************************
  Link C15 (2)
  
  
  *************************
  Routing Time Step Summary
  *************************
  Minimum Time Step           :     4.50 sec
  Average Time Step           :     5.00 sec
  Maximum Time Step           :     5.00 sec
  Percent in Steady State     :     0.00
  Average Iterations per Step :     2.00
  Percent Not Converging      :     0.00
  
  
  ***************************
  Subcatchment Runoff Summary
  ***************************
  
  ------------------------------------------------------------------------------------------------------------------------------
                            Total      Total      Total      Total     Imperv       Perv      Total       Total     Peak  Runoff
                           Precip      Runon       Evap      Infil     Runoff     Runoff     Runoff      Runoff   Runoff   Coeff
  Subcatchment                 mm         mm         mm         mm         mm         mm         mm    10^6 ltr      CMS
  ------------------------------------------------------------------------------------------------------------------------------
  SC01                       7.31       0.00       0.00       0.00       7.09       0.00       7.09        2.34     0.10   0.969
  SC02                       9.75       0.00       0.00       0.00       9.39       0.00       9.39        2.14     0.09   0.963
  SC03                      12.80       0.00       0.00       0.00      12.37       0.00      12.37        2.23     0.09   0.966
  SC04                       9.75       0.00       0.00       0.00       9.23       0.00       9.23        0.64     0.02   0.947
  SC05                       7.31       0.00       0.00       0.00       7.07       0.00       7.07        1.10     0.05   0.967
  SC06                      12.03       0.00       0.00       0.00      11.37       0.00      11.37        3.70     0.12   0.945
  SC07                       9.75       0.00       0.00       0.00       9.23       0.00       9.23        0.44     0.02   0.947
  SC08                      12.80       0.00       0.00       0.00      12.16       0.00      12.16        3.41     0.12   0.950
  SC09                      12.03       0.00       0.00       0.00      11.56       0.00      11.56        0.80     0.03   0.961
  SC010                      7.31       0.00       0.00       0.00       7.02       0.00       7.02        0.83     0.03   0.961
  
  
  ******************
  Node Depth Summary
  ******************
  
  ---------------------------------------------------------------------------------
                                 Average  Maximum  Maximum  Time of Max    Reported
                                   Depth    Depth      HGL   Occurrence   Max Depth
  Node                 Type       Meters   Meters   Meters  days hr:min      Meters
  ---------------------------------------------------------------------------------
  J1                   JUNCTION     0.06     0.08    34.08     0  18:27        0.08
  J3                   JUNCTION     0.00     0.00    18.00     0  00:00        0.00
  CSO7                 JUNCTION     0.08     0.11    34.11     0  18:21        0.11
  J5                   JUNCTION     0.05     0.07    32.07     0  18:37        0.07
  CSO9                 JUNCTION     0.09     0.15    40.15     0  18:27        0.15
  J8                   JUNCTION     0.09     0.14    36.14     0  18:32        0.14
  CSO8                 JUNCTION     0.11     0.21    32.21     0  18:06        0.20
  J10                  JUNCTION     0.09     0.14    29.14     0  18:12        0.14
  J13                  JUNCTION     0.05     0.08    29.08     0  18:22        0.08
  J15                  JUNCTION     0.08     0.12    15.12     0  18:30        0.12
  J16                  JUNCTION     0.05     0.08    30.08     0  18:27        0.08
  CSO10                JUNCTION     0.09     0.14    30.14     0  18:27        0.14
  J12                  JUNCTION     0.38     1.00    27.00     0  17:53        1.00
  J4                   JUNCTION     0.09     0.13    33.13     0  18:38        0.13
  J6                   JUNCTION     0.00     0.00    25.00     0  00:00        0.00
  J2                   JUNCTION     0.00     0.00    25.00     0  00:00        0.00
  J19                  JUNCTION     0.08     0.10     8.10     0  19:03        0.10
  J9                   JUNCTION     0.00     0.00    29.00     0  00:00        0.00
  J14                  JUNCTION     0.00     0.00    20.00     0  00:00        0.00
  J17                  JUNCTION     0.00     0.00    20.00     0  00:00        0.00
  J7                   JUNCTION     0.07     0.11    39.11     0  18:33        0.11
  J11                  JUNCTION     0.09     0.15    31.15     0  18:13        0.15
  J18                  JUNCTION     0.04     0.07    29.07     0  18:29        0.07
  Out_to_WWTP          OUTFALL      0.08     0.11     6.11     0  19:04        0.11
  T5                   STORAGE      3.73     5.00    32.00     0  12:27        5.00
  T4                   STORAGE      3.69     5.00    32.00     0  12:59        5.00
  T6                   STORAGE      4.36     5.00    36.00     0  05:19        5.00
  T3                   STORAGE      3.20     5.00    27.00     0  17:51        5.00
  T2                   STORAGE      3.29     5.00    26.00     0  16:05        5.00
  T1                   STORAGE      0.27     0.67    10.67     0  19:03        0.67
  
  
  *******************
  Node Inflow Summary
  *******************
  
  -------------------------------------------------------------------------------------------------
                                  Maximum  Maximum                  Lateral       Total        Flow
                                  Lateral    Total  Time of Max      Inflow      Inflow     Balance
                                   Inflow   Inflow   Occurrence      Volume      Volume       Error
  Node                 Type           CMS      CMS  days hr:min    10^6 ltr    10^6 ltr     Percent
  -------------------------------------------------------------------------------------------------
  J1                   JUNCTION     0.058    0.058     0  18:26         2.2         2.2       0.005
  J3                   JUNCTION     0.000    0.000     0  00:00           0           0       0.000 ltr
  CSO7                 JUNCTION     0.022    0.022     0  18:21           1           1       0.032
  J5                   JUNCTION     0.025    0.046     0  18:36       0.885        1.89       0.067
  CSO9                 JUNCTION     0.034    0.034     0  18:26        1.18        1.18       0.045
  J8                   JUNCTION     0.145    0.176     0  18:31        5.53        6.71       0.124
  CSO8                 JUNCTION     0.124    0.124     0  18:06        3.85        3.85       0.046
  J10                  JUNCTION     0.104    0.211     0  18:11        2.98        6.81       0.266
  J13                  JUNCTION     0.097    0.097     0  18:21        3.05        3.05      -0.009
  J15                  JUNCTION     0.000    0.135     0  18:27           0        4.51       0.275
  J16                  JUNCTION     0.110    0.110     0  18:26        3.42        3.42       0.033
  CSO10                JUNCTION     0.035    0.035     0  18:26         1.1         1.1       0.050
  J12                  JUNCTION     0.000    0.203     0  18:12           0        6.84      13.363
  J4                   JUNCTION     0.000    0.022     0  18:22           0           1       0.230
  J6                   JUNCTION     0.000    0.000     0  00:00           0           0       0.000 ltr
  J2                   JUNCTION     0.000    0.000     0  00:00           0           0       0.000 ltr
  J19                  JUNCTION     0.000    0.096     0  19:03           0        4.47       0.057
  J9                   JUNCTION     0.000    0.000     0  00:00           0           0       0.000 ltr
  J14                  JUNCTION     0.000    0.000     0  00:00           0           0       0.000 ltr
  J17                  JUNCTION     0.000    0.000     0  00:00           0           0       0.000 ltr
  J7                   JUNCTION     0.000    0.033     0  18:27           0        1.18       0.297
  J11                  JUNCTION     0.000    0.122     0  18:06           0        3.85       0.452
  J18                  JUNCTION     0.000    0.034     0  18:27           0         1.1       0.168
  Out_to_WWTP          OUTFALL      0.000    0.096     0  19:04           0        4.46       0.000
  T5                   STORAGE      0.000    0.055     0  18:27           0         2.2      29.390
  T4                   STORAGE      0.000    0.045     0  18:37           0        1.88      24.096
  T6                   STORAGE      0.000    0.171     0  18:32           0         6.7      14.487
  T3                   STORAGE      0.000    0.209     0  18:10           0        6.04      29.673
  T2                   STORAGE      0.000    0.091     0  18:22           0        3.05      45.176
  T1                   STORAGE      0.000    0.128     0  18:30           0         4.5       0.276
  
  
  **********************
  Node Surcharge Summary
  **********************
  
  No nodes were surcharged.
  
  
  *********************
  Node Flooding Summary
  *********************
  
  Flooding refers to all water that overflows a node, whether it ponds or not.
  --------------------------------------------------------------------------
                                                             Total   Maximum
                                 Maximum   Time of Max       Flood    Ponded
                        Hours       Rate    Occurrence      Volume     Depth
  Node                 Flooded       CMS   days hr:min    10^6 ltr    Meters
  --------------------------------------------------------------------------
  T5                     11.21     0.055      0  18:27       1.197     0.000
  T4                     10.67     0.045      0  18:37       1.019     0.000
  T6                     18.34     0.171      0  18:32       5.250     0.000
  T3                      5.81     0.209      0  18:10       2.003     0.000
  T2                      7.58     0.091      0  18:22       1.098     0.000
  
  
  **********************
  Storage Volume Summary
  **********************
  
  --------------------------------------------------------------------------------------------------
                         Average     Avg  Evap Exfil       Maximum     Max    Time of Max    Maximum
                          Volume    Pcnt  Pcnt  Pcnt        Volume    Pcnt     Occurrence    Outflow
  Storage Unit           1000 m3    Full  Loss  Loss       1000 m3    Full    days hr:min        CMS
  --------------------------------------------------------------------------------------------------
  T5                       0.373      75     0     0         0.500     100       0  12:27      0.000
  T4                       0.369      74     0     0         0.500     100       0  12:59      0.000
  T6                       0.523      87     0     0         0.600     100       0  05:19      0.000
  T3                       1.665      64     0     0         2.600     100       0  17:51      0.047
  T2                       0.659      66     0     0         1.000     100       0  16:05      0.000
  T1                       0.038       5     0     0         0.094      13       0  19:03      0.096
  
  
  ***********************
  Outfall Loading Summary
  ***********************
  
  -----------------------------------------------------------
                         Flow       Avg       Max       Total
                         Freq      Flow      Flow      Volume
  Outfall Node           Pcnt       CMS       CMS    10^6 ltr
  -----------------------------------------------------------
  Out_to_WWTP           99.58     0.053     0.096       4.465
  -----------------------------------------------------------
  System                99.58     0.053     0.096       4.465
  
  
  ********************
  Link Flow Summary
  ********************
  
  -----------------------------------------------------------------------------
                                 Maximum  Time of Max   Maximum    Max/    Max/
                                  |Flow|   Occurrence   |Veloc|    Full    Full
  Link                 Type          CMS  days hr:min     m/sec    Flow   Depth
  -----------------------------------------------------------------------------
  C1                   CONDUIT     0.000     0  00:00      0.00    0.00    0.00
  C6                   CONDUIT     0.021     0  18:38      1.01    0.34    0.34
  C2                   CONDUIT     0.000     0  00:00      0.00    0.00    0.00
  C9                   CONDUIT     0.031     0  18:33      0.83    0.11    0.25
  C16                  CONDUIT     0.115     0  18:13      1.12    0.01    0.07
  C3                   CONDUIT     0.000     0  00:00      0.00    0.00    0.00
  C19                  CONDUIT     0.000     0  00:00      0.00    0.00    0.06
  C11                  CONDUIT     0.000     0  00:00      0.00    0.00    0.03
  C20                  CONDUIT     0.104     0  18:27      1.68    0.00    0.05
  C22                  CONDUIT     0.032     0  18:29      0.95    0.01    0.12
  C12                  CONDUIT     0.000     0  00:00      0.00    0.00    0.25
  C17                  CONDUIT     0.203     0  18:12      1.91    0.01    0.29
  C10                  CONDUIT     0.171     0  18:32      1.12    0.02    0.55
  C13                  CONDUIT     0.209     0  18:10      1.49    0.01    0.75
  C18                  CONDUIT     0.091     0  18:22      1.39    0.00    0.52
  C23                  CONDUIT     0.128     0  18:30      1.35    0.01    0.26
  C4                   CONDUIT     0.055     0  18:27      1.46    0.01    0.54
  C7                   CONDUIT     0.045     0  18:37      1.07    0.01    0.54
  C14                  CONDUIT     0.096     0  19:04      1.51    0.01    0.05
  C5                   CONDUIT     0.022     0  18:22      0.95    0.38    0.47
  C8                   CONDUIT     0.033     0  18:27      1.08    0.41    0.41
  C15                  CONDUIT     0.122     0  18:06      2.14    0.39    0.39
  C21                  CONDUIT     0.034     0  18:27      1.20    0.19    0.24
  V4                   ORIFICE     0.000     0  00:00                      0.00
  V5                   ORIFICE     0.000     0  00:00                      0.00
  V1                   ORIFICE     0.096     0  19:03                      1.00
  V6                   ORIFICE     0.000     0  00:00                      0.00
  V3                   ORIFICE     0.000     0  00:00                      0.00
  V2                   ORIFICE     0.000     0  00:00                      0.00
  
  
  ***************************
  Flow Classification Summary
  ***************************
  
  -------------------------------------------------------------------------------------
                      Adjusted    ---------- Fraction of Time in Flow Class ---------- 
                       /Actual         Up    Down  Sub   Sup   Up    Down  Norm  Inlet 
  Conduit               Length    Dry  Dry   Dry   Crit  Crit  Crit  Crit  Ltd   Ctrl  
  -------------------------------------------------------------------------------------
  C1                      1.00   1.00  0.00  0.00  0.00  0.00  0.00  0.00  0.00  0.00
  C6                      1.00   0.00  0.00  0.00  0.01  0.99  0.00  0.00  0.00  0.00
  C2                      1.00   1.00  0.00  0.00  0.00  0.00  0.00  0.00  0.00  0.00
  C9                      1.00   0.00  0.00  0.00  1.00  0.00  0.00  0.00  1.00  0.00
  C16                     1.00   0.00  0.00  0.00  0.26  0.74  0.00  0.00  0.23  0.00
  C3                      1.00   1.00  0.00  0.00  0.00  0.00  0.00  0.00  0.00  0.00
  C19                     1.00   0.00  1.00  0.00  0.00  0.00  0.00  0.00  0.00  0.00
  C11                     1.00   0.00  1.00  0.00  0.00  0.00  0.00  0.00  0.00  0.00
  C20                     1.00   0.00  0.00  0.00  0.00  1.00  0.00  0.00  0.99  0.00
  C22                     1.00   0.00  0.00  0.00  0.33  0.67  0.00  0.00  1.00  0.00
  C12                     1.00   0.00  1.00  0.00  0.00  0.00  0.00  0.00  0.00  0.00
  C17                     1.00   0.00  0.00  0.00  0.37  0.63  0.00  0.00  0.95  0.00
  C10                     1.00   0.00  0.00  0.00  0.98  0.02  0.00  0.00  0.99  0.00
  C13                     1.00   0.00  0.00  0.00  0.96  0.04  0.00  0.00  0.59  0.00
  C18                     1.00   0.00  0.00  0.00  0.98  0.02  0.00  0.00  0.99  0.00
  C23                     1.00   0.00  0.00  0.00  0.72  0.28  0.00  0.00  0.98  0.00
  C4                      1.00   0.00  0.00  0.00  0.98  0.02  0.00  0.00  0.99  0.00
  C7                      1.00   0.00  0.00  0.00  0.97  0.03  0.00  0.00  0.98  0.00
  C14                     1.00   0.00  0.00  0.00  0.00  1.00  0.00  0.00  0.82  0.00
  C5                      1.00   0.00  0.00  0.00  0.89  0.11  0.00  0.00  0.99  0.00
  C8                      1.00   0.00  0.00  0.00  0.00  1.00  0.00  0.00  0.00  0.00
  C15                     1.00   0.00  0.00  0.00  0.00  1.00  0.00  0.00  0.00  0.00
  C21                     1.00   0.00  0.00  0.00  0.00  1.00  0.00  0.00  0.00  0.00
  
  
  *************************
  Conduit Surcharge Summary
  *************************
  
  ----------------------------------------------------------------------------
                                                           Hours        Hours 
                         --------- Hours Full --------   Above Full   Capacity
  Conduit                Both Ends  Upstream  Dnstream   Normal Flow   Limited
  ----------------------------------------------------------------------------
  C10                         0.01      0.01     21.24      0.01         0.01
  C13                         0.01      0.01     18.53      0.01         0.01
  C18                         0.01      0.01     18.78      0.01         0.01
  C4                          0.01      0.01     21.40      0.01         0.01
  C7                          0.01      0.01     21.34      0.01         0.01
  

  Analysis begun on:  Tue Sep 21 09:13:54 2021
  Analysis ended on:  Tue Sep 21 09:13:54 2021
  Total elapsed time: < 1 sec