
  EPA STORM WATER MANAGEMENT MODEL - VERSION 5.1 (Build 5.3.0.dev0)
  --------------------------------------------------------------

  WARNING 09: time series interval greater than recording interval for Rain Gage RG1
  WARNING 09: time series interval greater than recording interval for Rain Gage RG2
  WARNING 09: time series interval greater than recording interval for Rain Gage RG3
  WARNING 09: time series interval greater than recording interval for Rain Gage RG4
  
  *********************************************************
  NOTE: The summary statistics displayed in this report are
  based on results found at every computational time step,  
  not just on results from each reporting time step.
  *********************************************************
  
  ****************
  Analysis Options
  ****************
  Flow Units ............... CMS
  Process Models:
    Rainfall/Runoff ........ YES
    RDII ................... NO
    Snowmelt ............... NO
    Groundwater ............ NO
    Flow Routing ........... YES
    Ponding Allowed ........ YES
    Water Quality .......... NO
  Infiltration Method ...... HORTON
  Flow Routing Method ...... DYNWAVE
  Surcharge Method ......... EXTRAN
  Starting Date ............ 08/28/2015 00:00:00
  Ending Date .............. 08/28/2015 23:40:00
  Antecedent Dry Days ...... 0.0
  Report Time Step ......... 00:01:00
  Wet Time Step ............ 00:01:00
  Dry Time Step ............ 00:01:00
  Routing Time Step ........ 5.00 sec
  Variable Time Step ....... YES
  Maximum Trials ........... 8
  Number of Threads ........ 1
  Head Tolerance ........... 0.001500 m
  
  
  **************************        Volume         Depth
  Runoff Quantity Continuity     hectare-m            mm
  **************************     ---------       -------
  Total Precipitation ......         3.246        18.014
  Evaporation Loss .........         0.000         0.000
  Infiltration Loss ........         0.000         0.000
  Surface Runoff ...........         3.224        17.894
  Final Storage ............         0.024         0.131
  Continuity Error (%) .....        -0.057
  
  
  **************************        Volume        Volume
  Flow Routing Continuity        hectare-m      10^6 ltr
  **************************     ---------     ---------
  Dry Weather Inflow .......         0.758         7.576
  Wet Weather Inflow .......         3.224        32.245
  Groundwater Inflow .......         0.000         0.000
  RDII Inflow ..............         0.000         0.000
  External Inflow ..........         0.000         0.000
  External Outflow .........         1.469        14.691
  Flooding Loss ............         1.541        15.409
  Evaporation Loss .........         0.000         0.000
  Exfiltration Loss ........         0.000         0.000
  Initial Stored Volume ....         0.000         0.000
  Final Stored Volume ......         0.748         7.478
  Continuity Error (%) .....         5.631
  
  
  *************************
  Highest Continuity Errors
  *************************
  Node T2 (16.19%)
  Node T5 (11.63%)
  Node T3 (11.02%)
  Node T4 (9.60%)
  Node T6 (6.57%)
  
  
  ***************************
  Time-Step Critical Elements
  ***************************
  None
  
  
  ********************************
  Highest Flow Instability Indexes
  ********************************
  Link C15 (2)
  Link C20 (1)
  
  
  *************************
  Routing Time Step Summary
  *************************
  Minimum Time Step           :     0.29 sec
  Average Time Step           :     5.00 sec
  Maximum Time Step           :     5.00 sec
  Percent in Steady State     :     0.00
  Average Iterations per Step :     2.05
  Percent Not Converging      :     0.06
  
  
  ***************************
  Subcatchment Runoff Summary
  ***************************
  
  ------------------------------------------------------------------------------------------------------------------------------
                            Total      Total      Total      Total     Imperv       Perv      Total       Total     Peak  Runoff
                           Precip      Runon       Evap      Infil     Runoff     Runoff     Runoff      Runoff   Runoff   Coeff
  Subcatchment                 mm         mm         mm         mm         mm         mm         mm    10^6 ltr      CMS
  ------------------------------------------------------------------------------------------------------------------------------
  SC01                      20.48       0.00       0.00       0.00      20.41       0.00      20.41        6.74     0.64   0.997
  SC02                      18.07       0.00       0.00       0.00      17.99       0.00      17.99        4.09     0.35   0.996
  SC03                      15.71       0.00       0.00       0.00      15.66       0.00      15.66        2.82     0.20   0.997
  SC04                      18.07       0.00       0.00       0.00      17.88       0.00      17.88        1.23     0.08   0.990
  SC05                      20.48       0.00       0.00       0.00      20.40       0.00      20.40        3.18     0.29   0.996
  SC06                      16.88       0.00       0.00       0.00      16.64       0.00      16.64        5.42     0.39   0.986
  SC07                      18.07       0.00       0.00       0.00      17.88       0.00      17.88        0.85     0.06   0.990
  SC08                      15.71       0.00       0.00       0.00      15.60       0.00      15.60        4.37     0.26   0.993
  SC09                      16.88       0.00       0.00       0.00      16.74       0.00      16.74        1.16     0.10   0.992
  SC010                     20.48       0.00       0.00       0.00      20.38       0.00      20.38        2.39     0.20   0.995
  
  
  ******************
  Node Depth Summary
  ******************
  
  ---------------------------------------------------------------------------------
                                 Average  Maximum  Maximum  Time of Max    Reported
                                   Depth    Depth      HGL   Occurrence   Max Depth
  Node                 Type       Meters   Meters   Meters  days hr:min      Meters
  ---------------------------------------------------------------------------------
  J1                   JUNCTION     0.07     0.18    34.18     0  13:36        0.18
  J3                   JUNCTION     0.08     0.12    18.12     0  17:17        0.12
  CSO7                 JUNCTION     0.09     0.68    34.68     0  13:36        0.58
  J5                   JUNCTION     0.06     0.13    32.13     0  13:42        0.13
  CSO9                 JUNCTION     0.10     2.00    42.00     0  18:36        1.24
  J8                   JUNCTION     0.10     0.22    36.22     0  18:42        0.22
  CSO8                 JUNCTION     0.12     0.34    32.34     0  13:36        0.33
  J10                  JUNCTION     0.09     0.20    29.20     0  13:42        0.20
  J13                  JUNCTION     0.06     0.16    29.16     0  13:37        0.16
  J15                  JUNCTION     0.15     0.32    15.32     0  13:39        0.32
  J16                  JUNCTION     0.07     0.19    30.19     0  13:36        0.19
  CSO10                JUNCTION     0.12     1.00    31.00     0  13:36        0.89
  J12                  JUNCTION     0.43     1.01    27.01     0  16:24        1.01
  J4                   JUNCTION     0.11     0.33    33.33     0  13:53        0.33
  J6                   JUNCTION     0.05     0.07    25.07     0  14:26        0.07
  J2                   JUNCTION     0.00     0.00    25.00     0  00:00        0.00
  J19                  JUNCTION     0.13     0.17     8.17     0  13:32        0.17
  J9                   JUNCTION     0.07     0.11    29.11     0  09:53        0.11
  J14                  JUNCTION     0.10     0.15    20.15     0  16:25        0.15
  J17                  JUNCTION     0.05     0.08    20.08     0  14:39        0.08
  J7                   JUNCTION     0.08     0.19    39.19     0  18:42        0.19
  J11                  JUNCTION     0.09     0.22    31.22     0  13:48        0.22
  J18                  JUNCTION     0.06     0.15    29.15     0  13:38        0.15
  Out_to_WWTP          OUTFALL      0.13     0.17     6.17     0  16:06        0.17
  T5                   STORAGE      3.62     5.00    32.00     0  09:04        5.00
  T4                   STORAGE      3.18     5.00    32.00     0  13:39        5.00
  T6                   STORAGE      3.56     5.00    36.00     0  08:02        5.00
  T3                   STORAGE      3.00     5.00    27.00     0  16:23        5.00
  T2                   STORAGE      3.08     5.00    26.00     0  13:41        5.00
  T1                   STORAGE      2.72     5.00    15.00     0  13:30        5.00
  
  
  *******************
  Node Inflow Summary
  *******************
  
  -------------------------------------------------------------------------------------------------
                                  Maximum  Maximum                  Lateral       Total        Flow
                                  Lateral    Total  Time of Max      Inflow      Inflow     Balance
                                   Inflow   Inflow   Occurrence      Volume      Volume       Error
  Node                 Type           CMS      CMS  days hr:min    10^6 ltr    10^6 ltr     Percent
  -------------------------------------------------------------------------------------------------
  J1                   JUNCTION     0.316    0.316     0  13:36        4.28        4.28      -0.012
  J3                   JUNCTION     0.000    0.152     0  16:27           0        7.75       0.417
  CSO7                 JUNCTION     0.069    0.069     0  13:36        1.41        1.41       0.010
  J5                   JUNCTION     0.088    0.146     0  13:36        1.48         2.9       0.014
  CSO9                 JUNCTION     0.110    0.110     0  18:36        1.54        1.54      -0.007
  J8                   JUNCTION     0.418    0.477     0  18:41        7.25        8.78       0.023
  CSO8                 JUNCTION     0.271    0.271     0  13:46        4.82        4.82      -0.001
  J10                  JUNCTION     0.219    0.444     0  13:41        3.57        8.38      -0.080
  J13                  JUNCTION     0.369    0.369     0  13:36           5           5      -0.063
  J15                  JUNCTION     0.000    0.954     0  13:37           0        19.9       0.353
  J16                  JUNCTION     0.660    0.660     0  13:36        7.81        7.81      -0.037
  CSO10                JUNCTION     0.210    0.210     0  13:36        2.66        2.66      -0.013
  J12                  JUNCTION     0.000    0.502     0  13:42           0        12.4       4.618
  J4                   JUNCTION     0.000    0.067     0  13:36           0        1.41       0.069
  J6                   JUNCTION     0.000    0.028     0  13:39           0        1.46       0.233
  J2                   JUNCTION     0.000    0.000     0  00:00           0           0       0.000 ltr
  J19                  JUNCTION     0.000    0.271     0  13:30           0        14.7       0.072
  J9                   JUNCTION     0.000    0.075     0  08:30           0        4.07       0.424
  J14                  JUNCTION     0.000    0.124     0  16:23           0         6.3       0.107
  J17                  JUNCTION     0.000    0.033     0  13:41           0        1.71       0.395
  J7                   JUNCTION     0.000    0.107     0  18:36           0        1.54       0.072
  J11                  JUNCTION     0.000    0.268     0  13:46           0        4.82       0.040
  J18                  JUNCTION     0.000    0.200     0  13:36           0        2.66      -0.013
  Out_to_WWTP          OUTFALL      0.000    0.271     0  13:32           0        14.7       0.000
  T5                   STORAGE      0.000    0.293     0  13:36           0        4.28      13.159
  T4                   STORAGE      0.000    0.141     0  13:42           0         2.9      10.624
  T6                   STORAGE      0.000    0.464     0  18:42           0        8.78       7.033
  T3                   STORAGE      0.000    0.467     0  13:45           0        11.9      12.390
  T2                   STORAGE      0.000    0.342     0  13:37           0        5.01      19.324
  T1                   STORAGE      0.000    0.878     0  13:39           0        19.8       2.767
  
  
  **********************
  Node Surcharge Summary
  **********************
  
  Surcharging occurs when water rises above the top of the highest conduit.
  ---------------------------------------------------------------------
                                               Max. Height   Min. Depth
                                   Hours       Above Crown    Below Rim
  Node                 Type      Surcharged         Meters       Meters
  ---------------------------------------------------------------------
  CSO7                 JUNCTION        0.31          0.429        0.515
  CSO9                 JUNCTION        0.20          1.682        0.000
  CSO10                JUNCTION        0.09          0.560        0.000
  J4                   JUNCTION        0.11          0.030        1.670
  
  
  *********************
  Node Flooding Summary
  *********************
  
  Flooding refers to all water that overflows a node, whether it ponds or not.
  --------------------------------------------------------------------------
                                                             Total   Maximum
                                 Maximum   Time of Max       Flood    Ponded
                        Hours       Rate    Occurrence      Volume     Depth
  Node                 Flooded       CMS   days hr:min    10^6 ltr    Meters
  --------------------------------------------------------------------------
  CSO9                    0.01     0.018      0  18:36       0.000     0.000
  CSO10                   0.01     0.031      0  13:36       0.000     0.000
  T5                     14.60     0.293      0  13:37       3.279     0.000
  T4                      6.31     0.113      0  13:42       0.774     0.000
  T6                      9.76     0.389      0  18:42       3.734     0.000
  T3                      3.58     0.262      0  17:43       1.822     0.000
  T2                      6.03     0.281      0  13:41       1.640     0.000
  T1                      5.66     0.607      0  13:39       4.159     0.000
  
  
  **********************
  Storage Volume Summary
  **********************
  
  --------------------------------------------------------------------------------------------------
                         Average     Avg  Evap Exfil       Maximum     Max    Time of Max    Maximum
                          Volume    Pcnt  Pcnt  Pcnt        Volume    Pcnt     Occurrence    Outflow
  Storage Unit           1000 m3    Full  Loss  Loss       1000 m3    Full    days hr:min        CMS
  --------------------------------------------------------------------------------------------------
  T5                       0.362      72     0     0         0.500     100       0  09:04      0.000
  T4                       0.318      64     0     0         0.500     100       0  13:39      0.028
  T6                       0.427      71     0     0         0.600     100       0  08:02      0.075
  T3                       1.559      60     0     0         2.600     100       0  16:23      0.124
  T2                       0.615      62     0     0         1.000     100       0  13:41      0.033
  T1                       0.381      54     0     0         0.700     100       0  13:30      0.271
  
  
  ***********************
  Outfall Loading Summary
  ***********************
  
  -----------------------------------------------------------
                         Flow       Avg       Max       Total
                         Freq      Flow      Flow      Volume
  Outfall Node           Pcnt       CMS       CMS    10^6 ltr
  -----------------------------------------------------------
  Out_to_WWTP           99.43     0.173     0.271      14.691
  -----------------------------------------------------------
  System                99.43     0.173     0.271      14.691
  
  
  ********************
  Link Flow Summary
  ********************
  
  -----------------------------------------------------------------------------
                                 Maximum  Time of Max   Maximum    Max/    Max/
                                  |Flow|   Occurrence   |Veloc|    Full    Full
  Link                 Type          CMS  days hr:min     m/sec    Flow   Depth
  -----------------------------------------------------------------------------
  C1                   CONDUIT     0.000     0  00:00      0.00    0.00    0.06
  C6                   CONDUIT     0.060     0  13:46      1.29    0.96    0.71
  C2                   CONDUIT     0.028     0  14:26      1.08    0.03    0.16
  C9                   CONDUIT     0.089     0  18:42      1.17    0.30    0.41
  C16                  CONDUIT     0.249     0  13:48      1.44    0.02    0.10
  C3                   CONDUIT     0.124     0  16:27      1.88    0.05    0.14
  C19                  CONDUIT     0.033     0  14:39      0.66    0.01    0.19
  C11                  CONDUIT     0.152     0  17:17      1.60    0.01    0.11
  C20                  CONDUIT     0.607     0  13:36      2.69    0.02    0.13
  C22                  CONDUIT     0.181     0  13:38      1.48    0.08    0.29
  C12                  CONDUIT     0.075     0  09:53      1.07    0.01    0.28
  C17                  CONDUIT     0.426     0  13:42      2.31    0.02    0.29
  C10                  CONDUIT     0.464     0  18:42      0.93    0.05    0.57
  C13                  CONDUIT     0.467     0  13:45      1.15    0.03    0.75
  C18                  CONDUIT     0.342     0  13:37      1.01    0.01    0.54
  C23                  CONDUIT     0.878     0  13:39      1.24    0.10    0.61
  C4                   CONDUIT     0.293     0  13:36      1.12    0.07    0.59
  C7                   CONDUIT     0.141     0  13:42      0.80    0.03    0.56
  C14                  CONDUIT     0.271     0  13:32      2.08    0.02    0.09
  C5                   CONDUIT     0.067     0  13:36      1.32    1.15    1.00
  C8                   CONDUIT     0.107     0  18:36      1.70    1.35    0.80
  C15                  CONDUIT     0.268     0  13:46      2.65    0.85    0.61
  C21                  CONDUIT     0.200     0  13:36      1.85    1.14    0.68
  V4                   ORIFICE     0.028     0  13:39                      0.35
  V5                   ORIFICE     0.000     0  00:00                      0.00
  V1                   ORIFICE     0.271     0  13:30                      1.00
  V6                   ORIFICE     0.075     0  08:30                      0.43
  V3                   ORIFICE     0.124     0  16:23                      0.65
  V2                   ORIFICE     0.033     0  13:41                      0.24
  
  
  ***************************
  Flow Classification Summary
  ***************************
  
  -------------------------------------------------------------------------------------
                      Adjusted    ---------- Fraction of Time in Flow Class ---------- 
                       /Actual         Up    Down  Sub   Sup   Up    Down  Norm  Inlet 
  Conduit               Length    Dry  Dry   Dry   Crit  Crit  Crit  Crit  Ltd   Ctrl  
  -------------------------------------------------------------------------------------
  C1                      1.00   0.35  0.65  0.00  0.00  0.00  0.00  0.00  0.00  0.00
  C6                      1.00   0.00  0.00  0.00  0.02  0.98  0.00  0.00  0.00  0.00
  C2                      1.00   0.35  0.00  0.00  0.00  0.65  0.00  0.00  0.64  0.00
  C9                      1.00   0.00  0.00  0.00  1.00  0.00  0.00  0.00  1.00  0.00
  C16                     1.00   0.00  0.11  0.00  0.27  0.62  0.00  0.00  0.25  0.00
  C3                      1.00   0.35  0.00  0.00  0.00  0.65  0.00  0.00  0.00  0.00
  C19                     1.00   0.00  0.35  0.00  0.65  0.00  0.00  0.00  0.65  0.00
  C11                     1.00   0.00  0.35  0.00  0.12  0.53  0.00  0.00  0.65  0.00
  C20                     1.00   0.00  0.00  0.00  0.34  0.66  0.00  0.00  0.99  0.00
  C22                     1.00   0.00  0.00  0.00  0.68  0.32  0.00  0.00  1.00  0.00
  C12                     1.00   0.00  0.35  0.00  0.51  0.13  0.00  0.00  0.65  0.00
  C17                     1.00   0.00  0.00  0.00  0.48  0.52  0.00  0.00  0.94  0.00
  C10                     1.00   0.00  0.00  0.00  0.98  0.02  0.00  0.00  0.98  0.00
  C13                     1.00   0.00  0.00  0.00  0.90  0.10  0.00  0.00  0.50  0.00
  C18                     1.00   0.00  0.00  0.00  0.97  0.03  0.00  0.00  0.98  0.00
  C23                     1.00   0.00  0.00  0.00  0.87  0.13  0.00  0.00  0.93  0.00
  C4                      1.00   0.00  0.00  0.00  0.98  0.02  0.00  0.00  0.99  0.00
  C7                      1.00   0.00  0.00  0.00  0.97  0.03  0.00  0.00  0.98  0.00
  C14                     1.00   0.00  0.00  0.00  0.00  1.00  0.00  0.00  0.37  0.00
  C5                      1.00   0.00  0.00  0.00  0.88  0.12  0.00  0.00  0.97  0.00
  C8                      1.00   0.00  0.00  0.00  0.19  0.81  0.00  0.00  0.00  0.00
  C15                     1.00   0.11  0.00  0.00  0.00  0.89  0.00  0.00  0.00  0.00
  C21                     1.00   0.00  0.00  0.00  0.00  1.00  0.00  0.00  0.00  0.00
  
  
  *************************
  Conduit Surcharge Summary
  *************************
  
  ----------------------------------------------------------------------------
                                                           Hours        Hours 
                         --------- Hours Full --------   Above Full   Capacity
  Conduit                Both Ends  Upstream  Dnstream   Normal Flow   Limited
  ----------------------------------------------------------------------------
  C6                          0.01      0.11      0.01      0.01         0.01
  C10                         0.01      0.01     17.92      0.01         0.01
  C13                         0.01      0.01     15.69      0.01         0.01
  C18                         0.01      0.01     15.99      0.01         0.01
  C23                         0.01      0.01     15.66      0.01         0.01
  C4                          0.01      0.01     19.01      0.01         0.01
  C7                          0.01      0.01     17.58      0.01         0.01
  C5                          0.30      0.31      0.41      0.36         0.25
  C8                          0.01      0.20      0.01      0.18         0.01
  C21                         0.01      0.09      0.01      0.07         0.01
  

  Analysis begun on:  Tue Sep 21 09:23:23 2021
  Analysis ended on:  Tue Sep 21 09:23:23 2021
  Total elapsed time: < 1 sec