
  EPA STORM WATER MANAGEMENT MODEL - VERSION 5.1 (Build 5.3.0.dev0)
  --------------------------------------------------------------

  WARNING 09: time series interval greater than recording interval for Rain Gage RG1
  WARNING 09: time series interval greater than recording interval for Rain Gage RG2
  WARNING 09: time series interval greater than recording interval for Rain Gage RG3
  WARNING 09: time series interval greater than recording interval for Rain Gage RG4
  
  *********************************************************
  NOTE: The summary statistics displayed in this report are
  based on results found at every computational time step,  
  not just on results from each reporting time step.
  *********************************************************
  
  ****************
  Analysis Options
  ****************
  Flow Units ............... CMS
  Process Models:
    Rainfall/Runoff ........ YES
    RDII ................... NO
    Snowmelt ............... NO
    Groundwater ............ NO
    Flow Routing ........... YES
    Ponding Allowed ........ YES
    Water Quality .......... NO
  Infiltration Method ...... HORTON
  Flow Routing Method ...... DYNWAVE
  Surcharge Method ......... EXTRAN
  Starting Date ............ 08/28/2015 00:00:00
  Ending Date .............. 08/28/2015 23:40:00
  Antecedent Dry Days ...... 0.0
  Report Time Step ......... 00:01:00
  Wet Time Step ............ 00:01:00
  Dry Time Step ............ 00:01:00
  Routing Time Step ........ 5.00 sec
  Variable Time Step ....... YES
  Maximum Trials ........... 8
  Number of Threads ........ 1
  Head Tolerance ........... 0.001500 m
  
  
  **************************        Volume         Depth
  Runoff Quantity Continuity     hectare-m            mm
  **************************     ---------       -------
  Total Precipitation ......         3.150        17.479
  Evaporation Loss .........         0.000         0.000
  Infiltration Loss ........         0.000         0.000
  Surface Runoff ...........         3.102        17.212
  Final Storage ............         0.050         0.278
  Continuity Error (%) .....        -0.065
  
  
  **************************        Volume        Volume
  Flow Routing Continuity        hectare-m      10^6 ltr
  **************************     ---------     ---------
  Dry Weather Inflow .......         0.758         7.576
  Wet Weather Inflow .......         3.101        31.015
  Groundwater Inflow .......         0.000         0.000
  RDII Inflow ..............         0.000         0.000
  External Inflow ..........         0.000         0.000
  External Outflow .........         1.541        15.409
  Flooding Loss ............         1.254        12.536
  Evaporation Loss .........         0.000         0.000
  Exfiltration Loss ........         0.000         0.000
  Initial Stored Volume ....         0.000         0.000
  Final Stored Volume ......         0.809         8.095
  Continuity Error (%) .....         6.610
  
  
  *************************
  Highest Continuity Errors
  *************************
  Node T2 (16.36%)
  Node T5 (13.38%)
  Node T3 (10.62%)
  Node T6 (9.61%)
  Node T4 (8.48%)
  
  
  ***************************
  Time-Step Critical Elements
  ***************************
  None
  
  
  ********************************
  Highest Flow Instability Indexes
  ********************************
  Link C15 (2)
  
  
  *************************
  Routing Time Step Summary
  *************************
  Minimum Time Step           :     0.65 sec
  Average Time Step           :     5.00 sec
  Maximum Time Step           :     5.00 sec
  Percent in Steady State     :     0.00
  Average Iterations per Step :     2.01
  Percent Not Converging      :     0.05
  
  
  ***************************
  Subcatchment Runoff Summary
  ***************************
  
  ------------------------------------------------------------------------------------------------------------------------------
                            Total      Total      Total      Total     Imperv       Perv      Total       Total     Peak  Runoff
                           Precip      Runon       Evap      Infil     Runoff     Runoff     Runoff      Runoff   Runoff   Coeff
  Subcatchment                 mm         mm         mm         mm         mm         mm         mm    10^6 ltr      CMS
  ------------------------------------------------------------------------------------------------------------------------------
  SC01                      16.98       0.00       0.00       0.00      16.83       0.00      16.83        5.55     0.39   0.991
  SC02                      18.46       0.00       0.00       0.00      18.32       0.00      18.32        4.17     0.33   0.992
  SC03                      18.85       0.00       0.00       0.00      18.72       0.00      18.72        3.37     0.24   0.993
  SC04                      18.46       0.00       0.00       0.00      18.18       0.00      18.18        1.25     0.08   0.985
  SC05                      16.98       0.00       0.00       0.00      16.82       0.00      16.82        2.62     0.18   0.990
  SC06                      15.79       0.00       0.00       0.00      15.22       0.00      15.22        4.95     0.25   0.964
  SC07                      18.46       0.00       0.00       0.00      18.18       0.00      18.18        0.86     0.06   0.985
  SC08                      18.85       0.00       0.00       0.00      18.56       0.00      18.56        5.20     0.26   0.985
  SC09                      15.79       0.00       0.00       0.00      15.42       0.00      15.42        1.06     0.06   0.976
  SC010                     16.98       0.00       0.00       0.00      16.78       0.00      16.78        1.97     0.13   0.988
  
  
  ******************
  Node Depth Summary
  ******************
  
  ---------------------------------------------------------------------------------
                                 Average  Maximum  Maximum  Time of Max    Reported
                                   Depth    Depth      HGL   Occurrence   Max Depth
  Node                 Type       Meters   Meters   Meters  days hr:min      Meters
  ---------------------------------------------------------------------------------
  J1                   JUNCTION     0.06     0.14    34.14     0  09:56        0.14
  J3                   JUNCTION     0.08     0.12    18.12     0  12:29        0.12
  CSO7                 JUNCTION     0.09     0.81    34.81     0  09:46        0.54
  J5                   JUNCTION     0.06     0.13    32.13     0  09:52        0.13
  CSO9                 JUNCTION     0.10     0.24    40.24     0  12:17        0.24
  J8                   JUNCTION     0.10     0.19    36.19     0  12:22        0.19
  CSO8                 JUNCTION     0.13     0.34    32.34     0  12:21        0.33
  J10                  JUNCTION     0.09     0.20    29.20     0  12:23        0.20
  J13                  JUNCTION     0.06     0.15    29.15     0  09:41        0.15
  J15                  JUNCTION     0.14     0.27    15.27     0  09:59        0.27
  J16                  JUNCTION     0.06     0.15    30.15     0  09:56        0.15
  CSO10                JUNCTION     0.11     0.31    30.31     0  09:56        0.31
  J12                  JUNCTION     0.60     1.02    27.02     0  11:36        1.02
  J4                   JUNCTION     0.11     0.28    33.28     0  09:53        0.28
  J6                   JUNCTION     0.05     0.07    25.07     0  10:08        0.07
  J2                   JUNCTION     0.00     0.00    25.00     0  00:00        0.00
  J19                  JUNCTION     0.13     0.17     8.17     0  09:39        0.17
  J9                   JUNCTION     0.07     0.11    29.11     0  10:24        0.11
  J14                  JUNCTION     0.10     0.15    20.15     0  23:11        0.15
  J17                  JUNCTION     0.05     0.08    20.08     0  10:35        0.08
  J7                   JUNCTION     0.07     0.16    39.16     0  12:23        0.16
  J11                  JUNCTION     0.10     0.22    31.22     0  12:23        0.22
  J18                  JUNCTION     0.05     0.13    29.13     0  09:58        0.13
  Out_to_WWTP          OUTFALL      0.13     0.17     6.17     0  13:40        0.17
  T5                   STORAGE      3.64     5.00    32.00     0  08:25        5.00
  T4                   STORAGE      3.29     5.00    32.00     0  09:22        5.00
  T6                   STORAGE      3.59     5.00    36.00     0  08:22        5.00
  T3                   STORAGE      3.31     5.00    27.00     0  11:31        5.00
  T2                   STORAGE      3.40     5.00    26.00     0  09:37        5.00
  T1                   STORAGE      2.97     5.00    15.00     0  09:38        5.00
  
  
  *******************
  Node Inflow Summary
  *******************
  
  -------------------------------------------------------------------------------------------------
                                  Maximum  Maximum                  Lateral       Total        Flow
                                  Lateral    Total  Time of Max      Inflow      Inflow     Balance
                                   Inflow   Inflow   Occurrence      Volume      Volume       Error
  Node                 Type           CMS      CMS  days hr:min    10^6 ltr    10^6 ltr     Percent
  -------------------------------------------------------------------------------------------------
  J1                   JUNCTION     0.200    0.200     0  09:56        3.72        3.72      -0.010
  J3                   JUNCTION     0.000    0.152     0  11:34           0        7.97       0.414
  CSO7                 JUNCTION     0.067    0.067     0  09:46        1.43        1.43       0.006
  J5                   JUNCTION     0.088    0.147     0  09:46         1.5        2.93       0.013
  CSO9                 JUNCTION     0.071    0.071     0  12:16        1.45        1.45       0.026
  J8                   JUNCTION     0.295    0.357     0  12:21        6.78        8.23       0.092
  CSO8                 JUNCTION     0.275    0.275     0  12:21        5.64        5.64       0.008
  J10                  JUNCTION     0.250    0.446     0  12:21        4.12        9.75      -0.010
  J13                  JUNCTION     0.340    0.340     0  09:36        5.08        5.08      -0.085
  J15                  JUNCTION     0.000    0.675     0  09:57           0        18.6       0.372
  J16                  JUNCTION     0.410    0.410     0  09:56        6.63        6.63      -0.035
  CSO10                JUNCTION     0.134    0.134     0  09:56        2.24        2.24       0.013
  J12                  JUNCTION     0.000    0.501     0  12:23           0        13.7       6.189
  J4                   JUNCTION     0.000    0.066     0  09:46           0        1.43       0.107
  J6                   JUNCTION     0.000    0.028     0  09:22           0        1.44       0.223
  J2                   JUNCTION     0.000    0.000     0  00:00           0           0       0.000 ltr
  J19                  JUNCTION     0.000    0.271     0  09:38           0        15.4       0.072
  J9                   JUNCTION     0.000    0.075     0  08:50           0        4.01       0.504
  J14                  JUNCTION     0.000    0.124     0  11:31           0        6.54       0.105
  J17                  JUNCTION     0.000    0.033     0  09:37           0        1.75       0.402
  J7                   JUNCTION     0.000    0.068     0  12:17           0        1.45       0.201
  J11                  JUNCTION     0.000    0.272     0  12:21           0        5.64       0.146
  J18                  JUNCTION     0.000    0.128     0  09:56           0        2.24       0.016
  Out_to_WWTP          OUTFALL      0.000    0.271     0  09:39           0        15.4       0.000
  T5                   STORAGE      0.000    0.187     0  09:56           0        3.72      15.449
  T4                   STORAGE      0.000    0.142     0  09:52           0        2.93       9.271
  T6                   STORAGE      0.000    0.346     0  12:22           0        8.22      10.637
  T3                   STORAGE      0.000    0.575     0  11:40           0        12.9      11.885
  T2                   STORAGE      0.000    0.315     0  09:42           0        5.08      19.558
  T1                   STORAGE      0.000    0.640     0  09:59           0        18.5       3.331
  
  
  **********************
  Node Surcharge Summary
  **********************
  
  Surcharging occurs when water rises above the top of the highest conduit.
  ---------------------------------------------------------------------
                                               Max. Height   Min. Depth
                                   Hours       Above Crown    Below Rim
  Node                 Type      Surcharged         Meters       Meters
  ---------------------------------------------------------------------
  CSO7                 JUNCTION        0.22          0.558        0.387
  
  
  *********************
  Node Flooding Summary
  *********************
  
  Flooding refers to all water that overflows a node, whether it ponds or not.
  --------------------------------------------------------------------------
                                                             Total   Maximum
                                 Maximum   Time of Max       Flood    Ponded
                        Hours       Rate    Occurrence      Volume     Depth
  Node                 Flooded       CMS   days hr:min    10^6 ltr    Meters
  --------------------------------------------------------------------------
  T5                     15.24     0.187      0  09:57       2.720     0.000
  T4                      4.54     0.114      0  09:52       0.903     0.000
  T6                      7.52     0.270      0  12:22       2.863     0.000
  T3                      7.58     0.451      0  11:40       2.438     0.000
  T2                      4.51     0.282      0  09:42       1.627     0.000
  T1                      3.81     0.370      0  09:59       1.985     0.000
  
  
  **********************
  Storage Volume Summary
  **********************
  
  --------------------------------------------------------------------------------------------------
                         Average     Avg  Evap Exfil       Maximum     Max    Time of Max    Maximum
                          Volume    Pcnt  Pcnt  Pcnt        Volume    Pcnt     Occurrence    Outflow
  Storage Unit           1000 m3    Full  Loss  Loss       1000 m3    Full    days hr:min        CMS
  --------------------------------------------------------------------------------------------------
  T5                       0.364      73     0     0         0.500     100       0  08:25      0.000
  T4                       0.329      66     0     0         0.500     100       0  09:22      0.028
  T6                       0.430      72     0     0         0.600     100       0  08:22      0.075
  T3                       1.720      66     0     0         2.600     100       0  11:31      0.124
  T2                       0.681      68     0     0         1.000     100       0  09:37      0.033
  T1                       0.416      59     0     0         0.700     100       0  09:38      0.271
  
  
  ***********************
  Outfall Loading Summary
  ***********************
  
  -----------------------------------------------------------
                         Flow       Avg       Max       Total
                         Freq      Flow      Flow      Volume
  Outfall Node           Pcnt       CMS       CMS    10^6 ltr
  -----------------------------------------------------------
  Out_to_WWTP           99.43     0.182     0.271      15.409
  -----------------------------------------------------------
  System                99.43     0.182     0.271      15.409
  
  
  ********************
  Link Flow Summary
  ********************
  
  -----------------------------------------------------------------------------
                                 Maximum  Time of Max   Maximum    Max/    Max/
                                  |Flow|   Occurrence   |Veloc|    Full    Full
  Link                 Type          CMS  days hr:min     m/sec    Flow   Depth
  -----------------------------------------------------------------------------
  C1                   CONDUIT     0.000     0  00:00      0.00    0.00    0.06
  C6                   CONDUIT     0.060     0  09:56      1.27    0.96    0.68
  C2                   CONDUIT     0.028     0  10:08      1.12    0.03    0.16
  C9                   CONDUIT     0.065     0  12:23      1.05    0.22    0.35
  C16                  CONDUIT     0.250     0  12:23      1.44    0.02    0.10
  C3                   CONDUIT     0.124     0  11:34      1.92    0.05    0.14
  C19                  CONDUIT     0.033     0  10:35      0.64    0.01    0.17
  C11                  CONDUIT     0.152     0  12:27      1.57    0.01    0.10
  C20                  CONDUIT     0.381     0  09:56      2.59    0.01    0.11
  C22                  CONDUIT     0.122     0  09:58      1.41    0.05    0.25
  C12                  CONDUIT     0.075     0  10:23      0.66    0.01    0.28
  C17                  CONDUIT     0.426     0  12:23      2.55    0.02    0.30
  C10                  CONDUIT     0.346     0  12:22      0.93    0.04    0.56
  C13                  CONDUIT     0.575     0  11:40      1.72    0.03    0.75
  C18                  CONDUIT     0.315     0  09:42      1.01    0.01    0.54
  C23                  CONDUIT     0.640     0  09:59      1.70    0.07    0.59
  C4                   CONDUIT     0.187     0  09:56      1.12    0.05    0.57
  C7                   CONDUIT     0.142     0  09:52      0.80    0.03    0.56
  C14                  CONDUIT     0.271     0  09:39      2.08    0.02    0.09
  C5                   CONDUIT     0.066     0  09:46      1.29    1.13    1.00
  C8                   CONDUIT     0.068     0  12:17      1.32    0.86    0.62
  C15                  CONDUIT     0.272     0  12:21      2.67    0.86    0.61
  C21                  CONDUIT     0.128     0  09:56      1.73    0.73    0.49
  V4                   ORIFICE     0.028     0  09:22                      0.35
  V5                   ORIFICE     0.000     0  00:00                      0.00
  V1                   ORIFICE     0.271     0  09:38                      1.00
  V6                   ORIFICE     0.075     0  08:50                      0.43
  V3                   ORIFICE     0.124     0  11:31                      0.65
  V2                   ORIFICE     0.033     0  09:37                      0.24
  
  
  ***************************
  Flow Classification Summary
  ***************************
  
  -------------------------------------------------------------------------------------
                      Adjusted    ---------- Fraction of Time in Flow Class ---------- 
                       /Actual         Up    Down  Sub   Sup   Up    Down  Norm  Inlet 
  Conduit               Length    Dry  Dry   Dry   Crit  Crit  Crit  Crit  Ltd   Ctrl  
  -------------------------------------------------------------------------------------
  C1                      1.00   0.37  0.63  0.00  0.00  0.00  0.00  0.00  0.00  0.00
  C6                      1.00   0.00  0.00  0.00  0.03  0.97  0.00  0.00  0.00  0.00
  C2                      1.00   0.37  0.00  0.00  0.00  0.63  0.00  0.00  0.63  0.00
  C9                      1.00   0.00  0.00  0.00  1.00  0.00  0.00  0.00  1.00  0.00
  C16                     1.00   0.00  0.14  0.00  0.07  0.78  0.00  0.00  0.05  0.00
  C3                      1.00   0.37  0.00  0.00  0.00  0.63  0.00  0.00  0.00  0.00
  C19                     1.00   0.00  0.37  0.00  0.63  0.00  0.00  0.00  0.63  0.00
  C11                     1.00   0.00  0.37  0.00  0.10  0.53  0.00  0.00  0.63  0.00
  C20                     1.00   0.00  0.00  0.00  0.45  0.55  0.00  0.00  0.99  0.00
  C22                     1.00   0.00  0.00  0.00  0.75  0.25  0.00  0.00  1.00  0.00
  C12                     1.00   0.00  0.37  0.00  0.63  0.00  0.00  0.00  0.63  0.00
  C17                     1.00   0.00  0.00  0.00  0.58  0.42  0.00  0.00  0.94  0.00
  C10                     1.00   0.00  0.00  0.00  0.98  0.02  0.00  0.00  0.98  0.00
  C13                     1.00   0.00  0.00  0.00  0.91  0.09  0.00  0.00  0.34  0.00
  C18                     1.00   0.00  0.00  0.00  0.97  0.03  0.00  0.00  0.98  0.00
  C23                     1.00   0.00  0.00  0.00  0.82  0.18  0.00  0.00  0.91  0.00
  C4                      1.00   0.00  0.00  0.00  0.98  0.02  0.00  0.00  0.99  0.00
  C7                      1.00   0.00  0.00  0.00  0.97  0.03  0.00  0.00  0.98  0.00
  C14                     1.00   0.00  0.00  0.00  0.00  1.00  0.00  0.00  0.30  0.00
  C5                      1.00   0.00  0.00  0.00  0.92  0.08  0.00  0.00  0.97  0.00
  C8                      1.00   0.00  0.00  0.00  0.12  0.88  0.00  0.00  0.00  0.00
  C15                     1.00   0.14  0.00  0.00  0.00  0.86  0.00  0.00  0.00  0.00
  C21                     1.00   0.00  0.00  0.00  0.00  1.00  0.00  0.00  0.00  0.00
  
  
  *************************
  Conduit Surcharge Summary
  *************************
  
  ----------------------------------------------------------------------------
                                                           Hours        Hours 
                         --------- Hours Full --------   Above Full   Capacity
  Conduit                Both Ends  Upstream  Dnstream   Normal Flow   Limited
  ----------------------------------------------------------------------------
  C10                         0.01      0.01     18.34      0.01         0.01
  C13                         0.01      0.01     15.66      0.01         0.01
  C18                         0.01      0.01     16.03      0.01         0.01
  C23                         0.01      0.01     15.67      0.01         0.01
  C4                          0.01      0.01     19.23      0.01         0.01
  C7                          0.01      0.01     18.93      0.01         0.01
  C5                          0.22      0.22      0.42      0.38         0.17
  

  Analysis begun on:  Tue Sep 21 09:27:09 2021
  Analysis ended on:  Tue Sep 21 09:27:09 2021
  Total elapsed time: < 1 sec