
  EPA STORM WATER MANAGEMENT MODEL - VERSION 5.1 (Build 5.3.0.dev0)
  --------------------------------------------------------------

  WARNING 09: time series interval greater than recording interval for Rain Gage RG1
  WARNING 09: time series interval greater than recording interval for Rain Gage RG2
  WARNING 09: time series interval greater than recording interval for Rain Gage RG3
  WARNING 09: time series interval greater than recording interval for Rain Gage RG4
  
  *********************************************************
  NOTE: The summary statistics displayed in this report are
  based on results found at every computational time step,  
  not just on results from each reporting time step.
  *********************************************************
  
  ****************
  Analysis Options
  ****************
  Flow Units ............... CMS
  Process Models:
    Rainfall/Runoff ........ YES
    RDII ................... NO
    Snowmelt ............... NO
    Groundwater ............ NO
    Flow Routing ........... YES
    Ponding Allowed ........ YES
    Water Quality .......... NO
  Infiltration Method ...... HORTON
  Flow Routing Method ...... DYNWAVE
  Surcharge Method ......... EXTRAN
  Starting Date ............ 08/28/2015 00:00:00
  Ending Date .............. 08/28/2015 23:40:00
  Antecedent Dry Days ...... 0.0
  Report Time Step ......... 00:01:00
  Wet Time Step ............ 00:01:00
  Dry Time Step ............ 00:01:00
  Routing Time Step ........ 5.00 sec
  Variable Time Step ....... YES
  Maximum Trials ........... 8
  Number of Threads ........ 1
  Head Tolerance ........... 0.001500 m
  
  
  **************************        Volume         Depth
  Runoff Quantity Continuity     hectare-m            mm
  **************************     ---------       -------
  Total Precipitation ......         2.628        14.585
  Evaporation Loss .........         0.000         0.000
  Infiltration Loss ........         0.000         0.000
  Surface Runoff ...........         2.614        14.504
  Final Storage ............         0.017         0.094
  Continuity Error (%) .....        -0.085
  
  
  **************************        Volume        Volume
  Flow Routing Continuity        hectare-m      10^6 ltr
  **************************     ---------     ---------
  Dry Weather Inflow .......         0.758         7.576
  Wet Weather Inflow .......         2.614        26.136
  Groundwater Inflow .......         0.000         0.000
  RDII Inflow ..............         0.000         0.000
  External Inflow ..........         0.000         0.000
  External Outflow .........         1.868        18.678
  Flooding Loss ............         0.657         6.569
  Evaporation Loss .........         0.000         0.000
  Exfiltration Loss ........         0.000         0.000
  Initial Stored Volume ....         0.000         0.000
  Final Stored Volume ......         0.670         6.697
  Continuity Error (%) .....         5.242
  
  
  *************************
  Highest Continuity Errors
  *************************
  Node T2 (19.58%)
  Node T5 (13.71%)
  Node T3 (10.05%)
  Node T4 (9.01%)
  Node T6 (5.02%)
  
  
  ***************************
  Time-Step Critical Elements
  ***************************
  None
  
  
  ********************************
  Highest Flow Instability Indexes
  ********************************
  Link C15 (1)
  
  
  *************************
  Routing Time Step Summary
  *************************
  Minimum Time Step           :     4.50 sec
  Average Time Step           :     5.00 sec
  Maximum Time Step           :     5.00 sec
  Percent in Steady State     :     0.00
  Average Iterations per Step :     2.05
  Percent Not Converging      :     0.08
  
  
  ***************************
  Subcatchment Runoff Summary
  ***************************
  
  ------------------------------------------------------------------------------------------------------------------------------
                            Total      Total      Total      Total     Imperv       Perv      Total       Total     Peak  Runoff
                           Precip      Runon       Evap      Infil     Runoff     Runoff     Runoff      Runoff   Runoff   Coeff
  Subcatchment                 mm         mm         mm         mm         mm         mm         mm    10^6 ltr      CMS
  ------------------------------------------------------------------------------------------------------------------------------
  SC01                      16.31       0.00       0.00       0.00      16.26       0.00      16.26        5.37     0.61   0.997
  SC02                      12.65       0.00       0.00       0.00      12.59       0.00      12.59        2.86     0.42   0.995
  SC03                      13.50       0.00       0.00       0.00      13.46       0.00      13.46        2.42     0.36   0.997
  SC04                      12.65       0.00       0.00       0.00      12.53       0.00      12.53        0.86     0.09   0.990
  SC05                      16.31       0.00       0.00       0.00      16.25       0.00      16.25        2.54     0.28   0.997
  SC06                      14.90       0.00       0.00       0.00      14.75       0.00      14.75        4.80     0.32   0.990
  SC07                      12.65       0.00       0.00       0.00      12.53       0.00      12.53        0.60     0.06   0.990
  SC08                      13.50       0.00       0.00       0.00      13.42       0.00      13.42        3.76     0.46   0.994
  SC09                      14.90       0.00       0.00       0.00      14.81       0.00      14.81        1.02     0.09   0.994
  SC010                     16.31       0.00       0.00       0.00      16.24       0.00      16.24        1.91     0.19   0.996
  
  
  ******************
  Node Depth Summary
  ******************
  
  ---------------------------------------------------------------------------------
                                 Average  Maximum  Maximum  Time of Max    Reported
                                   Depth    Depth      HGL   Occurrence   Max Depth
  Node                 Type       Meters   Meters   Meters  days hr:min      Meters
  ---------------------------------------------------------------------------------
  J1                   JUNCTION     0.06     0.17    34.17     0  06:32        0.17
  J3                   JUNCTION     0.10     0.12    18.12     0  17:00        0.12
  CSO7                 JUNCTION     0.08     0.23    34.23     0  02:27        0.23
  J5                   JUNCTION     0.05     0.13    32.13     0  02:27        0.13
  CSO9                 JUNCTION     0.09     1.13    41.13     0  06:16        0.81
  J8                   JUNCTION     0.09     0.20    36.20     0  06:22        0.20
  CSO8                 JUNCTION     0.11     2.00    34.00     0  02:10        1.98
  J10                  JUNCTION     0.08     0.25    29.25     0  02:17        0.25
  J13                  JUNCTION     0.05     0.17    29.17     0  02:22        0.17
  J15                  JUNCTION     0.16     0.30    15.30     0  06:38        0.30
  J16                  JUNCTION     0.06     0.18    30.18     0  06:32        0.18
  CSO10                JUNCTION     0.11     0.41    30.41     0  06:32        0.41
  J12                  JUNCTION     0.41     1.01    27.01     0  16:28        1.01
  J4                   JUNCTION     0.10     0.25    33.25     0  02:29        0.25
  J6                   JUNCTION     0.06     0.07    25.07     0  16:58        0.07
  J2                   JUNCTION     0.00     0.00    25.00     0  00:00        0.00
  J19                  JUNCTION     0.15     0.17     8.17     0  06:37        0.17
  J9                   JUNCTION     0.10     0.11    29.11     0  07:35        0.11
  J14                  JUNCTION     0.13     0.15    20.15     0  16:01        0.15
  J17                  JUNCTION     0.06     0.08    20.08     0  16:56        0.08
  J7                   JUNCTION     0.07     0.18    39.18     0  06:23        0.18
  J11                  JUNCTION     0.08     0.27    31.27     0  02:17        0.27
  J18                  JUNCTION     0.05     0.15    29.15     0  06:38        0.15
  Out_to_WWTP          OUTFALL      0.15     0.17     6.17     0  14:00        0.17
  T5                   STORAGE      4.40     5.00    32.00     0  06:11        5.00
  T4                   STORAGE      3.17     4.55    31.55     0  16:54        4.55
  T6                   STORAGE      4.12     5.00    36.00     0  03:13        5.00
  T3                   STORAGE      3.77     5.00    27.00     0  15:59        5.00
  T2                   STORAGE      3.56     5.00    26.00     0  16:05        5.00
  T1                   STORAGE      3.61     5.00    15.00     0  06:36        5.00
  
  
  *******************
  Node Inflow Summary
  *******************
  
  -------------------------------------------------------------------------------------------------
                                  Maximum  Maximum                  Lateral       Total        Flow
                                  Lateral    Total  Time of Max      Inflow      Inflow     Balance
                                   Inflow   Inflow   Occurrence      Volume      Volume       Error
  Node                 Type           CMS      CMS  days hr:min    10^6 ltr    10^6 ltr     Percent
  -------------------------------------------------------------------------------------------------
  J1                   JUNCTION     0.291    0.291     0  06:31        3.63        3.63      -0.051
  J3                   JUNCTION     0.000    0.150     0  16:58           0        10.4       0.306
  CSO7                 JUNCTION     0.066    0.066     0  02:26        1.16        1.16       0.016
  J5                   JUNCTION     0.094    0.149     0  02:26        1.11        2.27      -0.038
  CSO9                 JUNCTION     0.096    0.096     0  06:16         1.4         1.4      -0.002
  J8                   JUNCTION     0.320    0.391     0  06:21        6.63        8.03      -0.037
  CSO8                 JUNCTION     0.464    0.464     0  02:16        4.21        4.21      -0.014
  J10                  JUNCTION     0.365    0.733     0  02:16        3.17        7.38      -0.097
  J13                  JUNCTION     0.419    0.419     0  02:21        3.77        3.77      -0.211
  J15                  JUNCTION     0.000    0.861     0  06:32           0        21.2       0.317
  J16                  JUNCTION     0.623    0.623     0  06:31        6.44        6.44      -0.075
  CSO10                JUNCTION     0.191    0.191     0  06:31        2.18        2.18      -0.003
  J12                  JUNCTION     0.000    0.696     0  02:18           0        12.8       2.435
  J4                   JUNCTION     0.000    0.063     0  02:27           0        1.16       0.094
  J6                   JUNCTION     0.000    0.027     0  16:54           0        1.79       0.176
  J2                   JUNCTION     0.000    0.000     0  00:00           0           0       0.000 ltr
  J19                  JUNCTION     0.000    0.271     0  06:36           0        18.7       0.053
  J9                   JUNCTION     0.000    0.075     0  03:13           0        5.47       0.307
  J14                  JUNCTION     0.000    0.124     0  15:59           0         8.6       0.078
  J17                  JUNCTION     0.000    0.033     0  16:05           0        2.24       0.318
  J7                   JUNCTION     0.000    0.092     0  06:16           0         1.4       0.073
  J11                  JUNCTION     0.000    0.464     0  02:16           0        4.21       0.050
  J18                  JUNCTION     0.000    0.175     0  06:32           0        2.18      -0.039
  Out_to_WWTP          OUTFALL      0.000    0.271     0  06:38           0        18.7       0.000
  T5                   STORAGE      0.000    0.265     0  06:32           0        3.63      15.894
  T4                   STORAGE      0.000    0.145     0  02:27           0        2.27       9.902
  T6                   STORAGE      0.000    0.377     0  06:22           0        8.04       5.289
  T3                   STORAGE      0.000    0.668     0  02:19           0        12.5      11.177
  T2                   STORAGE      0.000    0.383     0  02:22           0        3.78      24.346
  T1                   STORAGE      0.000    0.804     0  06:38           0        21.1       2.105
  
  
  **********************
  Node Surcharge Summary
  **********************
  
  Surcharging occurs when water rises above the top of the highest conduit.
  ---------------------------------------------------------------------
                                               Max. Height   Min. Depth
                                   Hours       Above Crown    Below Rim
  Node                 Type      Surcharged         Meters       Meters
  ---------------------------------------------------------------------
  CSO9                 JUNCTION        0.13          0.808        0.874
  CSO8                 JUNCTION        0.27          1.547        0.000
  
  
  *********************
  Node Flooding Summary
  *********************
  
  Flooding refers to all water that overflows a node, whether it ponds or not.
  --------------------------------------------------------------------------
                                                             Total   Maximum
                                 Maximum   Time of Max       Flood    Ponded
                        Hours       Rate    Occurrence      Volume     Depth
  Node                 Flooded       CMS   days hr:min    10^6 ltr    Meters
  --------------------------------------------------------------------------
  CSO8                    0.01     0.047      0  02:10       0.000     0.000
  T5                     17.48     0.265      0  06:32       2.633     0.000
  T6                      6.74     0.301      0  06:23       1.888     0.000
  T3                      1.63     0.155      0  16:32       0.349     0.000
  T2                      1.16     0.026      0  16:05       0.033     0.000
  T1                      3.64     0.534      0  06:38       1.667     0.000
  
  
  **********************
  Storage Volume Summary
  **********************
  
  --------------------------------------------------------------------------------------------------
                         Average     Avg  Evap Exfil       Maximum     Max    Time of Max    Maximum
                          Volume    Pcnt  Pcnt  Pcnt        Volume    Pcnt     Occurrence    Outflow
  Storage Unit           1000 m3    Full  Loss  Loss       1000 m3    Full    days hr:min        CMS
  --------------------------------------------------------------------------------------------------
  T5                       0.440      88     0     0         0.500     100       0  06:11      0.000
  T4                       0.317      63     0     0         0.455      91       0  16:54      0.027
  T6                       0.494      82     0     0         0.600     100       0  03:13      0.075
  T3                       1.961      75     0     0         2.600     100       0  15:59      0.124
  T2                       0.711      71     0     0         1.000     100       0  16:05      0.033
  T1                       0.505      72     0     0         0.700     100       0  06:36      0.271
  
  
  ***********************
  Outfall Loading Summary
  ***********************
  
  -----------------------------------------------------------
                         Flow       Avg       Max       Total
                         Freq      Flow      Flow      Volume
  Outfall Node           Pcnt       CMS       CMS    10^6 ltr
  -----------------------------------------------------------
  Out_to_WWTP           99.43     0.221     0.271      18.678
  -----------------------------------------------------------
  System                99.43     0.221     0.271      18.678
  
  
  ********************
  Link Flow Summary
  ********************
  
  -----------------------------------------------------------------------------
                                 Maximum  Time of Max   Maximum    Max/    Max/
                                  |Flow|   Occurrence   |Veloc|    Full    Full
  Link                 Type          CMS  days hr:min     m/sec    Flow   Depth
  -----------------------------------------------------------------------------
  C1                   CONDUIT     0.000     0  00:00      0.00    0.00    0.06
  C6                   CONDUIT     0.058     0  02:30      1.26    0.92    0.63
  C2                   CONDUIT     0.027     0  16:58      0.90    0.03    0.16
  C9                   CONDUIT     0.080     0  06:23      1.17    0.27    0.38
  C16                  CONDUIT     0.412     0  02:18      1.68    0.04    0.13
  C3                   CONDUIT     0.124     0  16:02      1.89    0.05    0.14
  C19                  CONDUIT     0.033     0  16:56      0.65    0.01    0.19
  C11                  CONDUIT     0.150     0  17:00      1.58    0.01    0.10
  C20                  CONDUIT     0.564     0  06:32      2.88    0.02    0.12
  C22                  CONDUIT     0.167     0  06:38      1.50    0.08    0.28
  C12                  CONDUIT     0.075     0  04:25      1.12    0.01    0.28
  C17                  CONDUIT     0.696     0  02:18      2.89    0.03    0.28
  C10                  CONDUIT     0.377     0  06:22      0.93    0.04    0.57
  C13                  CONDUIT     0.668     0  02:19      2.26    0.04    0.75
  C18                  CONDUIT     0.383     0  02:22      1.37    0.01    0.54
  C23                  CONDUIT     0.804     0  06:38      1.69    0.09    0.60
  C4                   CONDUIT     0.265     0  06:32      1.12    0.06    0.59
  C7                   CONDUIT     0.145     0  02:27      0.80    0.04    0.56
  C14                  CONDUIT     0.271     0  06:38      2.08    0.02    0.09
  C5                   CONDUIT     0.063     0  02:27      1.30    1.07    0.94
  C8                   CONDUIT     0.092     0  06:16      1.50    1.16    0.78
  C15                  CONDUIT     0.464     0  02:16      3.40    1.47    0.80
  C21                  CONDUIT     0.175     0  06:32      1.79    1.00    0.63
  V4                   ORIFICE     0.027     0  16:54                      0.35
  V5                   ORIFICE     0.000     0  00:00                      0.00
  V1                   ORIFICE     0.271     0  06:36                      1.00
  V6                   ORIFICE     0.075     0  03:13                      0.43
  V3                   ORIFICE     0.124     0  15:59                      0.65
  V2                   ORIFICE     0.033     0  16:05                      0.24
  
  
  ***************************
  Flow Classification Summary
  ***************************
  
  -------------------------------------------------------------------------------------
                      Adjusted    ---------- Fraction of Time in Flow Class ---------- 
                       /Actual         Up    Down  Sub   Sup   Up    Down  Norm  Inlet 
  Conduit               Length    Dry  Dry   Dry   Crit  Crit  Crit  Crit  Ltd   Ctrl  
  -------------------------------------------------------------------------------------
  C1                      1.00   0.10  0.90  0.00  0.00  0.00  0.00  0.00  0.00  0.00
  C6                      1.00   0.00  0.00  0.00  0.02  0.98  0.00  0.00  0.00  0.00
  C2                      1.00   0.10  0.00  0.00  0.02  0.88  0.00  0.00  0.90  0.00
  C9                      1.00   0.00  0.00  0.00  1.00  0.00  0.00  0.00  1.00  0.00
  C16                     1.00   0.00  0.05  0.00  0.40  0.54  0.00  0.00  0.34  0.00
  C3                      1.00   0.10  0.00  0.00  0.00  0.90  0.00  0.00  0.00  0.00
  C19                     1.00   0.00  0.10  0.00  0.90  0.00  0.00  0.00  0.90  0.00
  C11                     1.00   0.00  0.10  0.00  0.09  0.81  0.00  0.00  0.90  0.00
  C20                     1.00   0.00  0.00  0.00  0.64  0.36  0.00  0.00  0.99  0.00
  C22                     1.00   0.00  0.00  0.00  0.91  0.09  0.00  0.00  1.00  0.00
  C12                     1.00   0.00  0.10  0.00  0.60  0.30  0.00  0.00  0.85  0.00
  C17                     1.00   0.00  0.00  0.00  0.68  0.32  0.00  0.00  0.97  0.00
  C10                     1.00   0.00  0.00  0.00  0.98  0.02  0.00  0.00  0.98  0.00
  C13                     1.00   0.00  0.00  0.00  0.93  0.07  0.00  0.00  0.43  0.00
  C18                     1.00   0.00  0.00  0.00  0.96  0.04  0.00  0.00  0.98  0.00
  C23                     1.00   0.00  0.00  0.00  0.93  0.07  0.00  0.00  0.93  0.00
  C4                      1.00   0.00  0.00  0.00  0.97  0.03  0.00  0.00  0.99  0.00
  C7                      1.00   0.00  0.00  0.00  0.97  0.03  0.00  0.00  0.98  0.00
  C14                     1.00   0.00  0.00  0.00  0.00  1.00  0.00  0.00  0.33  0.00
  C5                      1.00   0.00  0.00  0.00  0.91  0.09  0.00  0.00  0.97  0.00
  C8                      1.00   0.00  0.00  0.00  0.14  0.86  0.00  0.00  0.01  0.00
  C15                     1.00   0.05  0.00  0.00  0.00  0.95  0.00  0.00  0.00  0.00
  C21                     1.00   0.00  0.00  0.00  0.00  1.00  0.00  0.00  0.00  0.00
  
  
  *************************
  Conduit Surcharge Summary
  *************************
  
  ----------------------------------------------------------------------------
                                                           Hours        Hours 
                         --------- Hours Full --------   Above Full   Capacity
  Conduit                Both Ends  Upstream  Dnstream   Normal Flow   Limited
  ----------------------------------------------------------------------------
  C10                         0.01      0.01     21.51      0.01         0.01
  C13                         0.01      0.01     21.09      0.01         0.01
  C18                         0.01      0.01     21.06      0.01         0.01
  C23                         0.01      0.01     21.37      0.01         0.01
  C4                          0.01      0.01     21.57      0.01         0.01
  C7                          0.01      0.01     21.30      0.01         0.01
  C5                          0.01      0.01      0.01      0.18         0.01
  C8                          0.01      0.13      0.01      0.10         0.01
  C15                         0.01      0.27      0.01      0.33         0.01
  C21                         0.01      0.01      0.01      0.01         0.01
  

  Analysis begun on:  Tue Sep 21 09:33:42 2021
  Analysis ended on:  Tue Sep 21 09:33:42 2021
  Total elapsed time: < 1 sec