
  EPA STORM WATER MANAGEMENT MODEL - VERSION 5.1 (Build 5.3.0.dev0)
  --------------------------------------------------------------

  WARNING 09: time series interval greater than recording interval for Rain Gage RG1
  WARNING 09: time series interval greater than recording interval for Rain Gage RG2
  WARNING 09: time series interval greater than recording interval for Rain Gage RG3
  WARNING 09: time series interval greater than recording interval for Rain Gage RG4
  
  *********************************************************
  NOTE: The summary statistics displayed in this report are
  based on results found at every computational time step,  
  not just on results from each reporting time step.
  *********************************************************
  
  ****************
  Analysis Options
  ****************
  Flow Units ............... CMS
  Process Models:
    Rainfall/Runoff ........ YES
    RDII ................... NO
    Snowmelt ............... NO
    Groundwater ............ NO
    Flow Routing ........... YES
    Ponding Allowed ........ YES
    Water Quality .......... NO
  Infiltration Method ...... HORTON
  Flow Routing Method ...... DYNWAVE
  Surcharge Method ......... EXTRAN
  Starting Date ............ 08/28/2015 00:00:00
  Ending Date .............. 08/28/2015 23:40:00
  Antecedent Dry Days ...... 0.0
  Report Time Step ......... 00:01:00
  Wet Time Step ............ 00:01:00
  Dry Time Step ............ 00:01:00
  Routing Time Step ........ 5.00 sec
  Variable Time Step ....... YES
  Maximum Trials ........... 8
  Number of Threads ........ 1
  Head Tolerance ........... 0.001500 m
  
  
  **************************        Volume         Depth
  Runoff Quantity Continuity     hectare-m            mm
  **************************     ---------       -------
  Total Precipitation ......         2.825        15.675
  Evaporation Loss .........         0.000         0.000
  Infiltration Loss ........         0.000         0.000
  Surface Runoff ...........         2.371        13.159
  Final Storage ............         0.468         2.596
  Continuity Error (%) .....        -0.511
  
  
  **************************        Volume        Volume
  Flow Routing Continuity        hectare-m      10^6 ltr
  **************************     ---------     ---------
  Dry Weather Inflow .......         0.758         7.576
  Wet Weather Inflow .......         2.358        23.580
  Groundwater Inflow .......         0.000         0.000
  RDII Inflow ..............         0.000         0.000
  External Inflow ..........         0.000         0.000
  External Outflow .........         1.273        12.734
  Flooding Loss ............         0.722         7.221
  Evaporation Loss .........         0.000         0.000
  Exfiltration Loss ........         0.000         0.000
  Initial Stored Volume ....         0.000         0.000
  Final Stored Volume ......         0.824         8.240
  Continuity Error (%) .....         9.504
  
  
  *************************
  Highest Continuity Errors
  *************************
  Node T2 (23.97%)
  Node T4 (15.99%)
  Node T5 (14.06%)
  Node T3 (13.91%)
  Node T6 (11.52%)
  
  
  ***************************
  Time-Step Critical Elements
  ***************************
  None
  
  
  ********************************
  Highest Flow Instability Indexes
  ********************************
  All links are stable.
  
  
  *************************
  Routing Time Step Summary
  *************************
  Minimum Time Step           :     4.50 sec
  Average Time Step           :     5.00 sec
  Maximum Time Step           :     5.00 sec
  Percent in Steady State     :     0.00
  Average Iterations per Step :     2.06
  Percent Not Converging      :     0.06
  
  
  ***************************
  Subcatchment Runoff Summary
  ***************************
  
  ------------------------------------------------------------------------------------------------------------------------------
                            Total      Total      Total      Total     Imperv       Perv      Total       Total     Peak  Runoff
                           Precip      Runon       Evap      Infil     Runoff     Runoff     Runoff      Runoff   Runoff   Coeff
  Subcatchment                 mm         mm         mm         mm         mm         mm         mm    10^6 ltr      CMS
  ------------------------------------------------------------------------------------------------------------------------------
  SC01                      17.89       0.00       0.00       0.00      16.01       0.00      16.01        5.28     1.72   0.895
  SC02                      15.51       0.00       0.00       0.00      13.56       0.00      13.56        3.09     0.73   0.874
  SC03                      11.01       0.00       0.00       0.00       9.65       0.00       9.65        1.74     0.66   0.877
  SC04                      15.51       0.00       0.00       0.00      12.45       0.00      12.45        0.86     0.15   0.803
  SC05                      17.89       0.00       0.00       0.00      15.85       0.00      15.85        2.47     0.78   0.886
  SC06                      17.87       0.00       0.00       0.00      13.49       0.00      13.49        4.39     1.19   0.755
  SC07                      15.51       0.00       0.00       0.00      12.46       0.00      12.46        0.59     0.11   0.803
  SC08                      11.01       0.00       0.00       0.00       8.79       0.00       8.79        2.46     0.70   0.798
  SC09                      17.87       0.00       0.00       0.00      14.77       0.00      14.77        1.02     0.32   0.826
  SC010                     17.89       0.00       0.00       0.00      15.42       0.00      15.42        1.81     0.52   0.862
  
  
  ******************
  Node Depth Summary
  ******************
  
  ---------------------------------------------------------------------------------
                                 Average  Maximum  Maximum  Time of Max    Reported
                                   Depth    Depth      HGL   Occurrence   Max Depth
  Node                 Type       Meters   Meters   Meters  days hr:min      Meters
  ---------------------------------------------------------------------------------
  J1                   JUNCTION     0.06     0.28    34.28     0  23:31        0.28
  J3                   JUNCTION     0.07     0.12    18.12     0  23:40        0.12
  CSO7                 JUNCTION     0.08     1.20    35.20     0  23:35        1.20
  J5                   JUNCTION     0.05     0.15    32.15     0  23:39        0.15
  CSO9                 JUNCTION     0.12     2.00    42.00     0  23:15        2.00
  J8                   JUNCTION     0.08     0.36    36.36     0  23:32        0.36
  CSO8                 JUNCTION     0.09     2.00    34.00     0  23:30        2.00
  J10                  JUNCTION     0.06     0.30    29.30     0  23:37        0.30
  J13                  JUNCTION     0.05     0.21    29.21     0  23:37        0.21
  J15                  JUNCTION     0.13     0.43    15.43     0  23:33        0.43
  J16                  JUNCTION     0.05     0.30    30.30     0  23:31        0.30
  CSO10                JUNCTION     0.11     1.00    31.00     0  22:51        1.00
  J12                  JUNCTION     0.10     0.32    26.32     0  23:40        0.32
  J4                   JUNCTION     0.10     1.41    34.41     0  23:38        0.74
  J6                   JUNCTION     0.05     0.07    25.07     0  23:40        0.07
  J2                   JUNCTION     0.00     0.00    25.00     0  00:00        0.00
  J19                  JUNCTION     0.12     0.17     8.17     0  23:02        0.17
  J9                   JUNCTION     0.07     0.11    29.11     0  08:54        0.11
  J14                  JUNCTION     0.09     0.15    20.15     0  23:40        0.15
  J17                  JUNCTION     0.05     0.08    20.08     0  23:40        0.08
  J7                   JUNCTION     0.06     0.23    39.23     0  23:40        0.23
  J11                  JUNCTION     0.06     0.29    31.29     0  23:40        0.29
  J18                  JUNCTION     0.04     0.16    29.16     0  23:40        0.16
  Out_to_WWTP          OUTFALL      0.12     0.17     6.17     0  23:01        0.17
  T5                   STORAGE      3.64     5.00    32.00     0  07:40        5.00
  T4                   STORAGE      2.61     4.86    31.86     0  23:40        4.86
  T6                   STORAGE      2.78     5.00    36.00     0  07:21        5.00
  T3                   STORAGE      1.88     4.30    26.30     0  23:40        4.30
  T2                   STORAGE      2.61     5.00    26.00     0  23:17        5.00
  T1                   STORAGE      2.07     5.00    15.00     0  23:00        5.00
  
  
  *******************
  Node Inflow Summary
  *******************
  
  -------------------------------------------------------------------------------------------------
                                  Maximum  Maximum                  Lateral       Total        Flow
                                  Lateral    Total  Time of Max      Inflow      Inflow     Balance
                                   Inflow   Inflow   Occurrence      Volume      Volume       Error
  Node                 Type           CMS      CMS  days hr:min    10^6 ltr    10^6 ltr     Percent
  -------------------------------------------------------------------------------------------------
  J1                   JUNCTION     0.779    0.779     0  23:31        3.55        3.55       0.547
  J3                   JUNCTION     0.000    0.141     0  23:40           0        6.58       0.493
  CSO7                 JUNCTION     0.107    0.107     0  23:36        1.15        1.15       0.217
  J5                   JUNCTION     0.154    0.206     0  23:36         1.1        2.23       0.762
  CSO9                 JUNCTION     0.319    0.319     0  23:26        1.39        1.39       0.291
  J8                   JUNCTION     1.199    1.326     0  23:31        6.19        7.42       1.188
  CSO8                 JUNCTION     0.704    0.704     0  23:36        2.89        2.89       0.265
  J10                  JUNCTION     0.664    1.098     0  23:36        2.48        5.24       1.833
  J13                  JUNCTION     0.734    0.734     0  23:36        3.98        3.98       0.684
  J15                  JUNCTION     0.000    1.930     0  23:31           0        16.4       1.817
  J16                  JUNCTION     1.718    1.718     0  23:31        6.34        6.34       0.555
  CSO10                JUNCTION     0.525    0.525     0  23:31        2.07        2.07       0.354
  J12                  JUNCTION     0.000    1.072     0  23:37           0        8.83       2.100
  J4                   JUNCTION     0.000    0.085     0  23:36           0        1.15       1.564
  J6                   JUNCTION     0.000    0.028     0  23:40           0        1.38       0.267
  J2                   JUNCTION     0.000    0.000     0  00:00           0           0       0.000 ltr
  J19                  JUNCTION     0.000    0.271     0  23:00           0        12.7       0.099
  J9                   JUNCTION     0.000    0.075     0  07:30           0         3.7       0.577
  J14                  JUNCTION     0.000    0.115     0  23:40           0        5.21       0.125
  J17                  JUNCTION     0.000    0.033     0  23:17           0        1.63       0.481
  J7                   JUNCTION     0.000    0.127     0  23:40           0        1.26       2.073
  J11                  JUNCTION     0.000    0.485     0  23:40           0        2.84       2.788
  J18                  JUNCTION     0.000    0.202     0  23:40           0        1.92       1.184
  Out_to_WWTP          OUTFALL      0.000    0.271     0  23:02           0        12.7       0.000
  T5                   STORAGE      0.000    0.714     0  23:31           0        3.54      16.366
  T4                   STORAGE      0.000    0.198     0  23:39           0        2.22      19.037
  T6                   STORAGE      0.000    1.255     0  23:32           0        7.34      13.015
  T3                   STORAGE      0.000    0.969     0  23:40           0        8.65      16.163
  T2                   STORAGE      0.000    0.650     0  23:37           0        3.95      31.524
  T1                   STORAGE      0.000    1.603     0  23:33           0        16.1       5.447
  
  
  **********************
  Node Surcharge Summary
  **********************
  
  Surcharging occurs when water rises above the top of the highest conduit.
  ---------------------------------------------------------------------
                                               Max. Height   Min. Depth
                                   Hours       Above Crown    Below Rim
  Node                 Type      Surcharged         Meters       Meters
  ---------------------------------------------------------------------
  CSO7                 JUNCTION        0.07          0.945        0.000
  CSO9                 JUNCTION        0.68          1.682        0.000
  CSO8                 JUNCTION        0.15          1.547        0.000
  CSO10                JUNCTION        0.61          0.560        0.000
  J4                   JUNCTION        0.03          1.108        0.592
  
  
  *********************
  Node Flooding Summary
  *********************
  
  Flooding refers to all water that overflows a node, whether it ponds or not.
  --------------------------------------------------------------------------
                                                             Total   Maximum
                                 Maximum   Time of Max       Flood    Ponded
                        Hours       Rate    Occurrence      Volume     Depth
  Node                 Flooded       CMS   days hr:min    10^6 ltr    Meters
  --------------------------------------------------------------------------
  CSO7                    0.07     0.024      0  23:38       0.005     0.000
  CSO9                    0.41     0.192      0  23:26       0.135     0.000
  CSO8                    0.12     0.221      0  23:36       0.039     0.000
  CSO10                   0.43     0.322      0  23:31       0.150     0.000
  T5                     15.99     0.714      0  23:31       2.539     0.000
  T6                      2.56     1.180      0  23:32       2.190     0.000
  T2                      0.37     0.617      0  23:37       0.372     0.000
  T1                      0.66     1.332      0  23:33       1.798     0.000
  
  
  **********************
  Storage Volume Summary
  **********************
  
  --------------------------------------------------------------------------------------------------
                         Average     Avg  Evap Exfil       Maximum     Max    Time of Max    Maximum
                          Volume    Pcnt  Pcnt  Pcnt        Volume    Pcnt     Occurrence    Outflow
  Storage Unit           1000 m3    Full  Loss  Loss       1000 m3    Full    days hr:min        CMS
  --------------------------------------------------------------------------------------------------
  T5                       0.364      73     0     0         0.500     100       0  07:40      0.000
  T4                       0.261      52     0     0         0.486      97       0  23:40      0.028
  T6                       0.333      56     0     0         0.600     100       0  07:21      0.075
  T3                       0.977      38     0     0         2.236      86       0  23:40      0.115
  T2                       0.521      52     0     0         1.000     100       0  23:17      0.033
  T1                       0.290      41     0     0         0.700     100       0  23:00      0.271
  
  
  ***********************
  Outfall Loading Summary
  ***********************
  
  -----------------------------------------------------------
                         Flow       Avg       Max       Total
                         Freq      Flow      Flow      Volume
  Outfall Node           Pcnt       CMS       CMS    10^6 ltr
  -----------------------------------------------------------
  Out_to_WWTP           99.43     0.150     0.271      12.734
  -----------------------------------------------------------
  System                99.43     0.150     0.271      12.734
  
  
  ********************
  Link Flow Summary
  ********************
  
  -----------------------------------------------------------------------------
                                 Maximum  Time of Max   Maximum    Max/    Max/
                                  |Flow|   Occurrence   |Veloc|    Full    Full
  Link                 Type          CMS  days hr:min     m/sec    Flow   Depth
  -----------------------------------------------------------------------------
  C1                   CONDUIT     0.000     0  00:00      0.00    0.00    0.06
  C6                   CONDUIT     0.071     0  23:39      1.25    1.13    0.75
  C2                   CONDUIT     0.027     0  23:40      1.19    0.03    0.16
  C9                   CONDUIT     0.127     0  23:40      1.23    0.43    0.59
  C16                  CONDUIT     0.479     0  23:39      1.70    0.05    0.15
  C3                   CONDUIT     0.114     0  23:40      1.83    0.04    0.13
  C19                  CONDUIT     0.033     0  23:40      0.64    0.01    0.25
  C11                  CONDUIT     0.139     0  23:40      1.43    0.01    0.14
  C20                  CONDUIT     1.560     0  23:31      4.26    0.05    0.18
  C22                  CONDUIT     0.202     0  23:40      1.54    0.09    0.37
  C12                  CONDUIT     0.075     0  08:54      1.08    0.01    0.11
  C17                  CONDUIT     0.997     0  23:37      3.30    0.05    0.15
  C10                  CONDUIT     1.255     0  23:32      1.09    0.13    0.62
  C13                  CONDUIT     0.969     0  23:40      1.16    0.06    0.58
  C18                  CONDUIT     0.650     0  23:37      1.01    0.02    0.55
  C23                  CONDUIT     1.603     0  23:33      1.34    0.18    0.64
  C4                   CONDUIT     0.714     0  23:31      1.34    0.17    0.64
  C7                   CONDUIT     0.198     0  23:39      0.80    0.05    0.57
  C14                  CONDUIT     0.271     0  23:02      2.08    0.02    0.09
  C5                   CONDUIT     0.085     0  23:36      1.67    1.46    1.00
  C8                   CONDUIT     0.127     0  23:40      1.83    1.60    0.86
  C15                  CONDUIT     0.485     0  23:40      3.69    1.54    0.82
  C21                  CONDUIT     0.202     0  23:40      1.88    1.16    0.69
  V4                   ORIFICE     0.028     0  23:40                      0.35
  V5                   ORIFICE     0.000     0  00:00                      0.00
  V1                   ORIFICE     0.271     0  23:00                      1.00
  V6                   ORIFICE     0.075     0  07:30                      0.43
  V3                   ORIFICE     0.115     0  23:40                      0.65
  V2                   ORIFICE     0.033     0  23:17                      0.24
  
  
  ***************************
  Flow Classification Summary
  ***************************
  
  -------------------------------------------------------------------------------------
                      Adjusted    ---------- Fraction of Time in Flow Class ---------- 
                       /Actual         Up    Down  Sub   Sup   Up    Down  Norm  Inlet 
  Conduit               Length    Dry  Dry   Dry   Crit  Crit  Crit  Crit  Ltd   Ctrl  
  -------------------------------------------------------------------------------------
  C1                      1.00   0.31  0.69  0.00  0.00  0.00  0.00  0.00  0.00  0.00
  C6                      1.00   0.00  0.00  0.00  0.01  0.99  0.00  0.00  0.00  0.00
  C2                      1.00   0.31  0.00  0.00  0.00  0.69  0.00  0.00  0.68  0.00
  C9                      1.00   0.00  0.00  0.00  1.00  0.00  0.00  0.00  1.00  0.00
  C16                     1.00   0.00  0.17  0.00  0.52  0.31  0.00  0.00  0.43  0.00
  C3                      1.00   0.31  0.00  0.00  0.00  0.69  0.00  0.00  0.00  0.00
  C19                     1.00   0.00  0.31  0.00  0.69  0.00  0.00  0.00  0.69  0.00
  C11                     1.00   0.00  0.31  0.00  0.09  0.60  0.00  0.00  0.69  0.00
  C20                     1.00   0.00  0.00  0.00  0.52  0.48  0.00  0.00  0.99  0.00
  C22                     1.00   0.00  0.00  0.00  0.82  0.18  0.00  0.00  1.00  0.00
  C12                     1.00   0.00  0.31  0.00  0.16  0.53  0.00  0.00  0.58  0.00
  C17                     1.00   0.00  0.00  0.00  0.49  0.51  0.00  0.00  0.93  0.00
  C10                     1.00   0.00  0.00  0.00  0.98  0.02  0.00  0.00  0.98  0.00
  C13                     1.00   0.00  0.00  0.00  0.90  0.10  0.00  0.00  0.94  0.00
  C18                     1.00   0.00  0.00  0.00  0.97  0.03  0.00  0.00  0.98  0.00
  C23                     1.00   0.00  0.00  0.00  0.79  0.21  0.00  0.00  0.91  0.00
  C4                      1.00   0.00  0.00  0.00  0.98  0.02  0.00  0.00  0.99  0.00
  C7                      1.00   0.00  0.00  0.00  0.97  0.03  0.00  0.00  0.98  0.00
  C14                     1.00   0.00  0.00  0.00  0.00  1.00  0.00  0.00  0.53  0.00
  C5                      1.00   0.00  0.00  0.00  0.88  0.12  0.00  0.00  0.98  0.00
  C8                      1.00   0.00  0.00  0.00  0.18  0.82  0.00  0.00  0.00  0.00
  C15                     1.00   0.17  0.00  0.00  0.02  0.80  0.00  0.00  0.03  0.00
  C21                     1.00   0.00  0.00  0.00  0.00  1.00  0.00  0.00  0.00  0.00
  
  
  *************************
  Conduit Surcharge Summary
  *************************
  
  ----------------------------------------------------------------------------
                                                           Hours        Hours 
                         --------- Hours Full --------   Above Full   Capacity
  Conduit                Both Ends  Upstream  Dnstream   Normal Flow   Limited
  ----------------------------------------------------------------------------
  C6                          0.01      0.03      0.01      0.02         0.01
  C10                         0.01      0.01     18.07      0.01         0.01
  C13                         0.01      0.01     15.60      0.01         0.01
  C18                         0.01      0.01     16.72      0.01         0.01
  C23                         0.01      0.01     16.73      0.01         0.01
  C4                          0.01      0.01     17.95      0.01         0.01
  C7                          0.01      0.01     17.84      0.01         0.01
  C5                          0.05      0.07      0.05      0.11         0.05
  C8                          0.01      0.68      0.01      0.67         0.01
  C15                         0.01      0.15      0.01      0.15         0.01
  C21                         0.01      0.61      0.01      0.57         0.01
  

  Analysis begun on:  Tue Sep 21 09:40:13 2021
  Analysis ended on:  Tue Sep 21 09:40:13 2021
  Total elapsed time: < 1 sec