
  EPA STORM WATER MANAGEMENT MODEL - VERSION 5.1 (Build 5.3.0.dev0)
  --------------------------------------------------------------

  WARNING 09: time series interval greater than recording interval for Rain Gage RG1
  WARNING 09: time series interval greater than recording interval for Rain Gage RG2
  WARNING 09: time series interval greater than recording interval for Rain Gage RG3
  WARNING 09: time series interval greater than recording interval for Rain Gage RG4
  
  *********************************************************
  NOTE: The summary statistics displayed in this report are
  based on results found at every computational time step,  
  not just on results from each reporting time step.
  *********************************************************
  
  ****************
  Analysis Options
  ****************
  Flow Units ............... CMS
  Process Models:
    Rainfall/Runoff ........ YES
    RDII ................... NO
    Snowmelt ............... NO
    Groundwater ............ NO
    Flow Routing ........... YES
    Ponding Allowed ........ YES
    Water Quality .......... NO
  Infiltration Method ...... HORTON
  Flow Routing Method ...... DYNWAVE
  Surcharge Method ......... EXTRAN
  Starting Date ............ 08/28/2015 00:00:00
  Ending Date .............. 08/28/2015 23:40:00
  Antecedent Dry Days ...... 0.0
  Report Time Step ......... 00:01:00
  Wet Time Step ............ 00:01:00
  Dry Time Step ............ 00:01:00
  Routing Time Step ........ 5.00 sec
  Variable Time Step ....... YES
  Maximum Trials ........... 8
  Number of Threads ........ 1
  Head Tolerance ........... 0.001500 m
  
  
  **************************        Volume         Depth
  Runoff Quantity Continuity     hectare-m            mm
  **************************     ---------       -------
  Total Precipitation ......         2.383        13.227
  Evaporation Loss .........         0.000         0.000
  Infiltration Loss ........         0.000         0.000
  Surface Runoff ...........         2.371        13.157
  Final Storage ............         0.014         0.079
  Continuity Error (%) .....        -0.064
  
  
  **************************        Volume        Volume
  Flow Routing Continuity        hectare-m      10^6 ltr
  **************************     ---------     ---------
  Dry Weather Inflow .......         0.758         7.576
  Wet Weather Inflow .......         2.371        23.708
  Groundwater Inflow .......         0.000         0.000
  RDII Inflow ..............         0.000         0.000
  External Inflow ..........         0.000         0.000
  External Outflow .........         1.739        17.385
  Flooding Loss ............         0.820         8.202
  Evaporation Loss .........         0.000         0.000
  Exfiltration Loss ........         0.000         0.000
  Initial Stored Volume ....         0.000         0.000
  Final Stored Volume ......         0.490         4.895
  Continuity Error (%) .....         2.562
  
  
  *************************
  Highest Continuity Errors
  *************************
  Node T2 (16.91%)
  Node T5 (13.18%)
  Node T3 (7.91%)
  Node T4 (6.49%)
  Node T6 (2.63%)
  
  
  ***************************
  Time-Step Critical Elements
  ***************************
  None
  
  
  ********************************
  Highest Flow Instability Indexes
  ********************************
  Link C20 (1)
  
  
  *************************
  Routing Time Step Summary
  *************************
  Minimum Time Step           :     4.50 sec
  Average Time Step           :     5.00 sec
  Maximum Time Step           :     5.00 sec
  Percent in Steady State     :     0.00
  Average Iterations per Step :     2.04
  Percent Not Converging      :     0.06
  
  
  ***************************
  Subcatchment Runoff Summary
  ***************************
  
  ------------------------------------------------------------------------------------------------------------------------------
                            Total      Total      Total      Total     Imperv       Perv      Total       Total     Peak  Runoff
                           Precip      Runon       Evap      Infil     Runoff     Runoff     Runoff      Runoff   Runoff   Coeff
  Subcatchment                 mm         mm         mm         mm         mm         mm         mm    10^6 ltr      CMS
  ------------------------------------------------------------------------------------------------------------------------------
  SC01                      17.18       0.00       0.00       0.00      17.14       0.00      17.14        5.66     0.72   0.998
  SC02                      10.77       0.00       0.00       0.00      10.70       0.00      10.70        2.43     0.31   0.993
  SC03                       9.36       0.00       0.00       0.00       9.31       0.00       9.31        1.67     0.24   0.994
  SC04                      10.77       0.00       0.00       0.00      10.66       0.00      10.66        0.74     0.08   0.989
  SC05                      17.18       0.00       0.00       0.00      17.13       0.00      17.13        2.67     0.33   0.997
  SC06                      13.83       0.00       0.00       0.00      13.74       0.00      13.74        4.47     0.40   0.993
  SC07                      10.77       0.00       0.00       0.00      10.66       0.00      10.66        0.51     0.05   0.989
  SC08                       9.36       0.00       0.00       0.00       9.27       0.00       9.27        2.60     0.30   0.990
  SC09                      13.83       0.00       0.00       0.00      13.77       0.00      13.77        0.95     0.09   0.995
  SC010                     17.18       0.00       0.00       0.00      17.13       0.00      17.13        2.01     0.23   0.997
  
  
  ******************
  Node Depth Summary
  ******************
  
  ---------------------------------------------------------------------------------
                                 Average  Maximum  Maximum  Time of Max    Reported
                                   Depth    Depth      HGL   Occurrence   Max Depth
  Node                 Type       Meters   Meters   Meters  days hr:min      Meters
  ---------------------------------------------------------------------------------
  J1                   JUNCTION     0.06     0.19    34.19     0  08:46        0.19
  J3                   JUNCTION     0.10     0.12    18.12     0  11:13        0.12
  CSO7                 JUNCTION     0.08     0.19    34.19     0  03:06        0.19
  J5                   JUNCTION     0.05     0.12    32.12     0  03:07        0.12
  CSO9                 JUNCTION     0.09     1.26    41.26     0  08:16        0.90
  J8                   JUNCTION     0.09     0.22    36.22     0  03:17        0.22
  CSO8                 JUNCTION     0.09     0.38    32.38     0  02:26        0.36
  J10                  JUNCTION     0.07     0.21    29.21     0  02:32        0.21
  J13                  JUNCTION     0.05     0.15    29.15     0  03:02        0.15
  J15                  JUNCTION     0.16     0.32    15.32     0  08:49        0.32
  J16                  JUNCTION     0.06     0.20    30.20     0  08:46        0.20
  CSO10                JUNCTION     0.11     1.00    31.00     0  08:41        1.00
  J12                  JUNCTION     0.14     0.25    26.25     0  11:34        0.25
  J4                   JUNCTION     0.09     0.22    33.22     0  03:08        0.22
  J6                   JUNCTION     0.06     0.07    25.07     0  10:41        0.07
  J2                   JUNCTION     0.00     0.00    25.00     0  00:00        0.00
  J19                  JUNCTION     0.15     0.17     8.17     0  03:42        0.17
  J9                   JUNCTION     0.09     0.11    29.11     0  04:34        0.11
  J14                  JUNCTION     0.13     0.15    20.15     0  11:39        0.15
  J17                  JUNCTION     0.06     0.07    20.07     0  10:38        0.07
  J7                   JUNCTION     0.07     0.19    39.19     0  03:17        0.19
  J11                  JUNCTION     0.07     0.23    31.23     0  02:32        0.23
  J18                  JUNCTION     0.05     0.16    29.16     0  08:48        0.16
  Out_to_WWTP          OUTFALL      0.15     0.17     6.17     0  07:44        0.17
  T5                   STORAGE      4.41     5.00    32.00     0  03:48        5.00
  T4                   STORAGE      3.14     4.35    31.35     0  10:39        4.35
  T6                   STORAGE      3.53     5.00    36.00     0  03:17        5.00
  T3                   STORAGE      3.44     4.25    26.25     0  11:29        4.25
  T2                   STORAGE      3.57     4.70    25.70     0  10:36        4.70
  T1                   STORAGE      3.18     5.00    15.00     0  03:40        5.00
  
  
  *******************
  Node Inflow Summary
  *******************
  
  -------------------------------------------------------------------------------------------------
                                  Maximum  Maximum                  Lateral       Total        Flow
                                  Lateral    Total  Time of Max      Inflow      Inflow     Balance
                                   Inflow   Inflow   Occurrence      Volume      Volume       Error
  Node                 Type           CMS      CMS  days hr:min    10^6 ltr    10^6 ltr     Percent
  -------------------------------------------------------------------------------------------------
  J1                   JUNCTION     0.344    0.344     0  08:46        3.77        3.77      -0.034
  J3                   JUNCTION     0.000    0.140     0  11:12           0        9.81       0.280
  CSO7                 JUNCTION     0.055    0.055     0  03:01        1.07        1.07       0.012
  J5                   JUNCTION     0.078    0.126     0  03:06       0.983        2.05      -0.025
  CSO9                 JUNCTION     0.099    0.099     0  08:16        1.33        1.33      -0.016
  J8                   JUNCTION     0.402    0.484     0  03:16         6.3        7.63      -0.023
  CSO8                 JUNCTION     0.304    0.304     0  02:26        3.04        3.04      -0.003
  J10                  JUNCTION     0.242    0.479     0  02:31        2.43        5.47      -0.018
  J13                  JUNCTION     0.314    0.314     0  03:01        3.34        3.34      -0.170
  J15                  JUNCTION     0.000    1.027     0  08:47           0          21       0.272
  J16                  JUNCTION     0.732    0.732     0  08:46        6.73        6.73      -0.049
  CSO10                JUNCTION     0.230    0.230     0  08:46        2.28        2.28      -0.017
  J12                  JUNCTION     0.000    0.458     0  02:32           0        10.4       0.035
  J4                   JUNCTION     0.000    0.053     0  03:06           0        1.07       0.108
  J6                   JUNCTION     0.000    0.026     0  10:39           0        1.75       0.148
  J2                   JUNCTION     0.000    0.000     0  00:00           0           0       0.000 ltr
  J19                  JUNCTION     0.000    0.271     0  03:40           0        17.4       0.048
  J9                   JUNCTION     0.000    0.075     0  03:17           0         4.9       0.310
  J14                  JUNCTION     0.000    0.114     0  11:29           0        8.07       0.068
  J17                  JUNCTION     0.000    0.032     0  10:36           0        2.21       0.302
  J7                   JUNCTION     0.000    0.096     0  08:16           0        1.33       0.061
  J11                  JUNCTION     0.000    0.300     0  02:26           0        3.04       0.035
  J18                  JUNCTION     0.000    0.202     0  08:47           0        2.28      -0.038
  Out_to_WWTP          OUTFALL      0.000    0.271     0  03:42           0        17.4       0.000
  T5                   STORAGE      0.000    0.319     0  08:46           0        3.77      15.175
  T4                   STORAGE      0.000    0.123     0  03:07           0        2.05       6.943
  T6                   STORAGE      0.000    0.466     0  03:17           0        7.64       2.701
  T3                   STORAGE      0.000    0.449     0  02:34           0        10.4       8.591
  T2                   STORAGE      0.000    0.287     0  03:02           0        3.35      20.353
  T1                   STORAGE      0.000    0.931     0  08:49           0        20.9       1.439
  
  
  **********************
  Node Surcharge Summary
  **********************
  
  Surcharging occurs when water rises above the top of the highest conduit.
  ---------------------------------------------------------------------
                                               Max. Height   Min. Depth
                                   Hours       Above Crown    Below Rim
  Node                 Type      Surcharged         Meters       Meters
  ---------------------------------------------------------------------
  CSO9                 JUNCTION        0.28          0.942        0.740
  CSO10                JUNCTION        0.17          0.560        0.000
  
  
  *********************
  Node Flooding Summary
  *********************
  
  Flooding refers to all water that overflows a node, whether it ponds or not.
  --------------------------------------------------------------------------
                                                             Total   Maximum
                                 Maximum   Time of Max       Flood    Ponded
                        Hours       Rate    Occurrence      Volume     Depth
  Node                 Flooded       CMS   days hr:min    10^6 ltr    Meters
  --------------------------------------------------------------------------
  CSO10                   0.03     0.045      0  08:46       0.002     0.000
  T5                     19.85     0.319      0  08:46       2.771     0.000
  T6                      5.53     0.390      0  03:17       2.400     0.000
  T1                      3.97     0.661      0  08:49       3.029     0.000
  
  
  **********************
  Storage Volume Summary
  **********************
  
  --------------------------------------------------------------------------------------------------
                         Average     Avg  Evap Exfil       Maximum     Max    Time of Max    Maximum
                          Volume    Pcnt  Pcnt  Pcnt        Volume    Pcnt     Occurrence    Outflow
  Storage Unit           1000 m3    Full  Loss  Loss       1000 m3    Full    days hr:min        CMS
  --------------------------------------------------------------------------------------------------
  T5                       0.441      88     0     0         0.500     100       0  03:48      0.000
  T4                       0.314      63     0     0         0.435      87       0  10:39      0.026
  T6                       0.423      71     0     0         0.600     100       0  03:17      0.075
  T3                       1.789      69     0     0         2.211      85       0  11:29      0.114
  T2                       0.714      71     0     0         0.940      94       0  10:36      0.032
  T1                       0.445      64     0     0         0.700     100       0  03:40      0.271
  
  
  ***********************
  Outfall Loading Summary
  ***********************
  
  -----------------------------------------------------------
                         Flow       Avg       Max       Total
                         Freq      Flow      Flow      Volume
  Outfall Node           Pcnt       CMS       CMS    10^6 ltr
  -----------------------------------------------------------
  Out_to_WWTP           99.44     0.205     0.271      17.385
  -----------------------------------------------------------
  System                99.44     0.205     0.271      17.385
  
  
  ********************
  Link Flow Summary
  ********************
  
  -----------------------------------------------------------------------------
                                 Maximum  Time of Max   Maximum    Max/    Max/
                                  |Flow|   Occurrence   |Veloc|    Full    Full
  Link                 Type          CMS  days hr:min     m/sec    Flow   Depth
  -----------------------------------------------------------------------------
  C1                   CONDUIT     0.000     0  00:00      0.00    0.00    0.06
  C6                   CONDUIT     0.050     0  03:08      1.23    0.80    0.56
  C2                   CONDUIT     0.026     0  10:41      0.93    0.03    0.16
  C9                   CONDUIT     0.086     0  03:17      1.16    0.29    0.41
  C16                  CONDUIT     0.275     0  02:33      1.49    0.03    0.11
  C3                   CONDUIT     0.114     0  11:30      1.89    0.04    0.13
  C19                  CONDUIT     0.032     0  10:38      0.64    0.01    0.20
  C11                  CONDUIT     0.140     0  11:13      1.51    0.01    0.11
  C20                  CONDUIT     0.673     0  08:46      2.84    0.02    0.13
  C22                  CONDUIT     0.195     0  08:48      1.52    0.09    0.30
  C12                  CONDUIT     0.075     0  04:35      1.11    0.01    0.09
  C17                  CONDUIT     0.458     0  02:32      2.52    0.02    0.11
  C10                  CONDUIT     0.466     0  03:17      0.95    0.05    0.57
  C13                  CONDUIT     0.449     0  02:34      1.64    0.03    0.56
  C18                  CONDUIT     0.287     0  03:02      1.32    0.01    0.54
  C23                  CONDUIT     0.931     0  08:49      1.14    0.10    0.61
  C4                   CONDUIT     0.319     0  08:46      1.19    0.08    0.59
  C7                   CONDUIT     0.123     0  03:07      0.97    0.03    0.56
  C14                  CONDUIT     0.271     0  03:42      2.08    0.02    0.09
  C5                   CONDUIT     0.053     0  03:06      1.25    0.91    0.80
  C8                   CONDUIT     0.096     0  08:16      1.50    1.21    0.79
  C15                  CONDUIT     0.300     0  02:26      2.71    0.95    0.65
  C21                  CONDUIT     0.202     0  08:47      1.84    1.16    0.68
  V4                   ORIFICE     0.026     0  10:39                      0.35
  V5                   ORIFICE     0.000     0  00:00                      0.00
  V1                   ORIFICE     0.271     0  03:40                      1.00
  V6                   ORIFICE     0.075     0  03:17                      0.43
  V3                   ORIFICE     0.114     0  11:29                      0.65
  V2                   ORIFICE     0.032     0  10:36                      0.24
  
  
  ***************************
  Flow Classification Summary
  ***************************
  
  -------------------------------------------------------------------------------------
                      Adjusted    ---------- Fraction of Time in Flow Class ---------- 
                       /Actual         Up    Down  Sub   Sup   Up    Down  Norm  Inlet 
  Conduit               Length    Dry  Dry   Dry   Crit  Crit  Crit  Crit  Ltd   Ctrl  
  -------------------------------------------------------------------------------------
  C1                      1.00   0.12  0.88  0.00  0.00  0.00  0.00  0.00  0.00  0.00
  C6                      1.00   0.00  0.00  0.00  0.01  0.99  0.00  0.00  0.00  0.00
  C2                      1.00   0.12  0.00  0.00  0.04  0.84  0.00  0.00  0.88  0.00
  C9                      1.00   0.00  0.00  0.00  1.00  0.00  0.00  0.00  1.00  0.00
  C16                     1.00   0.00  0.00  0.00  0.62  0.38  0.00  0.00  0.50  0.00
  C3                      1.00   0.12  0.00  0.00  0.00  0.88  0.00  0.00  0.00  0.00
  C19                     1.00   0.00  0.12  0.00  0.88  0.00  0.00  0.00  0.88  0.00
  C11                     1.00   0.00  0.12  0.00  0.13  0.75  0.00  0.00  0.88  0.00
  C20                     1.00   0.00  0.00  0.00  0.65  0.35  0.00  0.00  0.99  0.00
  C22                     1.00   0.00  0.00  0.00  0.79  0.21  0.00  0.00  1.00  0.00
  C12                     1.00   0.00  0.12  0.00  0.34  0.54  0.00  0.00  0.68  0.00
  C17                     1.00   0.00  0.00  0.00  0.71  0.29  0.00  0.00  0.96  0.00
  C10                     1.00   0.00  0.00  0.00  0.98  0.02  0.00  0.00  0.98  0.00
  C13                     1.00   0.00  0.00  0.00  0.96  0.04  0.00  0.00  0.67  0.00
  C18                     1.00   0.00  0.00  0.00  0.97  0.03  0.00  0.00  0.99  0.00
  C23                     1.00   0.00  0.00  0.00  0.95  0.05  0.00  0.00  0.97  0.00
  C4                      1.00   0.00  0.00  0.00  0.98  0.02  0.00  0.00  0.99  0.00
  C7                      1.00   0.00  0.00  0.00  0.97  0.03  0.00  0.00  0.98  0.00
  C14                     1.00   0.00  0.00  0.00  0.00  1.00  0.00  0.00  0.53  0.00
  C5                      1.00   0.00  0.00  0.00  0.90  0.10  0.00  0.00  0.99  0.00
  C8                      1.00   0.00  0.00  0.00  0.12  0.88  0.00  0.00  0.01  0.00
  C15                     1.00   0.00  0.00  0.00  0.02  0.98  0.00  0.00  0.02  0.00
  C21                     1.00   0.00  0.00  0.00  0.01  0.99  0.00  0.00  0.00  0.00
  
  
  *************************
  Conduit Surcharge Summary
  *************************
  
  ----------------------------------------------------------------------------
                                                           Hours        Hours 
                         --------- Hours Full --------   Above Full   Capacity
  Conduit                Both Ends  Upstream  Dnstream   Normal Flow   Limited
  ----------------------------------------------------------------------------
  C10                         0.01      0.01     20.16      0.01         0.01
  C13                         0.01      0.01     20.86      0.01         0.01
  C18                         0.01      0.01     20.78      0.01         0.01
  C23                         0.01      0.01     20.88      0.01         0.01
  C4                          0.01      0.01     21.37      0.01         0.01
  C7                          0.01      0.01     21.20      0.01         0.01
  C8                          0.01      0.28      0.01      0.27         0.01
  C21                         0.01      0.17      0.01      0.13         0.01
  

  Analysis begun on:  Tue Sep 21 09:41:10 2021
  Analysis ended on:  Tue Sep 21 09:41:10 2021
  Total elapsed time: < 1 sec