
  EPA STORM WATER MANAGEMENT MODEL - VERSION 5.1 (Build 5.3.0.dev0)
  --------------------------------------------------------------

  WARNING 09: time series interval greater than recording interval for Rain Gage RG1
  WARNING 09: time series interval greater than recording interval for Rain Gage RG2
  WARNING 09: time series interval greater than recording interval for Rain Gage RG3
  WARNING 09: time series interval greater than recording interval for Rain Gage RG4
  
  *********************************************************
  NOTE: The summary statistics displayed in this report are
  based on results found at every computational time step,  
  not just on results from each reporting time step.
  *********************************************************
  
  ****************
  Analysis Options
  ****************
  Flow Units ............... CMS
  Process Models:
    Rainfall/Runoff ........ YES
    RDII ................... NO
    Snowmelt ............... NO
    Groundwater ............ NO
    Flow Routing ........... YES
    Ponding Allowed ........ YES
    Water Quality .......... NO
  Infiltration Method ...... HORTON
  Flow Routing Method ...... DYNWAVE
  Surcharge Method ......... EXTRAN
  Starting Date ............ 08/28/2015 00:00:00
  Ending Date .............. 08/28/2015 23:40:00
  Antecedent Dry Days ...... 0.0
  Report Time Step ......... 00:01:00
  Wet Time Step ............ 00:01:00
  Dry Time Step ............ 00:01:00
  Routing Time Step ........ 5.00 sec
  Variable Time Step ....... YES
  Maximum Trials ........... 8
  Number of Threads ........ 1
  Head Tolerance ........... 0.001500 m
  
  
  **************************        Volume         Depth
  Runoff Quantity Continuity     hectare-m            mm
  **************************     ---------       -------
  Total Precipitation ......         2.062        11.440
  Evaporation Loss .........         0.000         0.000
  Infiltration Loss ........         0.000         0.000
  Surface Runoff ...........         1.967        10.918
  Final Storage ............         0.096         0.530
  Continuity Error (%) .....        -0.068
  
  
  **************************        Volume        Volume
  Flow Routing Continuity        hectare-m      10^6 ltr
  **************************     ---------     ---------
  Dry Weather Inflow .......         0.758         7.576
  Wet Weather Inflow .......         1.967        19.666
  Groundwater Inflow .......         0.000         0.000
  RDII Inflow ..............         0.000         0.000
  External Inflow ..........         0.000         0.000
  External Outflow .........         1.033        10.335
  Flooding Loss ............         0.510         5.104
  Evaporation Loss .........         0.000         0.000
  Exfiltration Loss ........         0.000         0.000
  Initial Stored Volume ....         0.000         0.000
  Final Stored Volume ......         0.872         8.718
  Continuity Error (%) .....        11.324
  
  
  *************************
  Highest Continuity Errors
  *************************
  Node T2 (27.67%)
  Node T5 (17.89%)
  Node T4 (17.63%)
  Node T3 (16.29%)
  Node T6 (13.61%)
  
  
  ***************************
  Time-Step Critical Elements
  ***************************
  None
  
  
  ********************************
  Highest Flow Instability Indexes
  ********************************
  Link C15 (1)
  
  
  *************************
  Routing Time Step Summary
  *************************
  Minimum Time Step           :     4.50 sec
  Average Time Step           :     5.00 sec
  Maximum Time Step           :     5.00 sec
  Percent in Steady State     :     0.00
  Average Iterations per Step :     2.00
  Percent Not Converging      :     0.00
  
  
  ***************************
  Subcatchment Runoff Summary
  ***************************
  
  ------------------------------------------------------------------------------------------------------------------------------
                            Total      Total      Total      Total     Imperv       Perv      Total       Total     Peak  Runoff
                           Precip      Runon       Evap      Infil     Runoff     Runoff     Runoff      Runoff   Runoff   Coeff
  Subcatchment                 mm         mm         mm         mm         mm         mm         mm    10^6 ltr      CMS
  ------------------------------------------------------------------------------------------------------------------------------
  SC01                      11.19       0.00       0.00       0.00      10.84       0.00      10.84        3.58     0.36   0.969
  SC02                      11.40       0.00       0.00       0.00      11.01       0.00      11.01        2.51     0.18   0.966
  SC03                      12.16       0.00       0.00       0.00      11.86       0.00      11.86        2.13     0.18   0.975
  SC04                      11.40       0.00       0.00       0.00      10.68       0.00      10.68        0.74     0.04   0.937
  SC05                      11.19       0.00       0.00       0.00      10.81       0.00      10.81        1.69     0.16   0.966
  SC06                      11.02       0.00       0.00       0.00      10.13       0.00      10.13        3.30     0.18   0.919
  SC07                      11.40       0.00       0.00       0.00      10.68       0.00      10.68        0.51     0.03   0.937
  SC08                      12.16       0.00       0.00       0.00      11.61       0.00      11.61        3.25     0.22   0.955
  SC09                      11.02       0.00       0.00       0.00      10.39       0.00      10.39        0.72     0.05   0.943
  SC010                     11.19       0.00       0.00       0.00      10.72       0.00      10.72        1.26     0.11   0.958
  
  
  ******************
  Node Depth Summary
  ******************
  
  ---------------------------------------------------------------------------------
                                 Average  Maximum  Maximum  Time of Max    Reported
                                   Depth    Depth      HGL   Occurrence   Max Depth
  Node                 Type       Meters   Meters   Meters  days hr:min      Meters
  ---------------------------------------------------------------------------------
  J1                   JUNCTION     0.06     0.14    34.14     0  12:07        0.14
  J3                   JUNCTION     0.05     0.12    18.12     0  23:01        0.12
  CSO7                 JUNCTION     0.08     0.15    34.15     0  12:01        0.15
  J5                   JUNCTION     0.05     0.10    32.10     0  12:02        0.10
  CSO9                 JUNCTION     0.08     0.20    40.20     0  12:57        0.20
  J8                   JUNCTION     0.08     0.17    36.17     0  13:02        0.17
  CSO8                 JUNCTION     0.10     0.30    32.30     0  12:11        0.29
  J10                  JUNCTION     0.08     0.19    29.19     0  12:17        0.19
  J13                  JUNCTION     0.05     0.12    29.12     0  11:52        0.12
  J15                  JUNCTION     0.11     0.22    15.22     0  12:12        0.22
  J16                  JUNCTION     0.05     0.15    30.15     0  12:07        0.15
  CSO10                JUNCTION     0.09     0.28    30.28     0  12:06        0.28
  J12                  JUNCTION     0.25     1.00    27.00     0  22:12        1.00
  J4                   JUNCTION     0.09     0.18    33.18     0  12:03        0.18
  J6                   JUNCTION     0.03     0.07    25.07     0  14:49        0.07
  J2                   JUNCTION     0.00     0.00    25.00     0  00:00        0.00
  J19                  JUNCTION     0.10     0.17     8.17     0  19:40        0.17
  J9                   JUNCTION     0.05     0.11    29.11     0  15:03        0.11
  J14                  JUNCTION     0.06     0.15    20.15     0  23:40        0.15
  J17                  JUNCTION     0.03     0.08    20.08     0  20:52        0.08
  J7                   JUNCTION     0.06     0.14    39.14     0  13:03        0.14
  J11                  JUNCTION     0.07     0.20    31.20     0  12:17        0.20
  J18                  JUNCTION     0.04     0.12    29.12     0  12:08        0.12
  Out_to_WWTP          OUTFALL      0.09     0.17     6.17     0  23:36        0.17
  T5                   STORAGE      2.84     5.00    32.00     0  12:55        5.00
  T4                   STORAGE      2.74     5.00    32.00     0  14:06        5.00
  T6                   STORAGE      3.00     5.00    36.00     0  12:46        5.00
  T3                   STORAGE      2.13     5.00    27.00     0  22:08        5.00
  T2                   STORAGE      2.33     5.00    26.00     0  20:01        5.00
  T1                   STORAGE      1.89     5.00    15.00     0  19:39        5.00
  
  
  *******************
  Node Inflow Summary
  *******************
  
  -------------------------------------------------------------------------------------------------
                                  Maximum  Maximum                  Lateral       Total        Flow
                                  Lateral    Total  Time of Max      Inflow      Inflow     Balance
                                   Inflow   Inflow   Occurrence      Volume      Volume       Error
  Node                 Type           CMS      CMS  days hr:min    10^6 ltr    10^6 ltr     Percent
  -------------------------------------------------------------------------------------------------
  J1                   JUNCTION     0.189    0.189     0  12:06        2.78        2.78       0.099
  J3                   JUNCTION     0.000    0.152     0  22:11           0        5.18       0.639
  CSO7                 JUNCTION     0.039    0.039     0  11:51        1.07        1.07       0.045
  J5                   JUNCTION     0.045    0.081     0  11:56       0.985        2.05       0.184
  CSO9                 JUNCTION     0.056    0.056     0  12:56         1.1         1.1       0.072
  J8                   JUNCTION     0.221    0.270     0  13:01        5.13        6.22       0.257
  CSO8                 JUNCTION     0.227    0.227     0  12:11         3.7         3.7       0.039
  J10                  JUNCTION     0.194    0.375     0  12:16        2.88        6.56       0.214
  J13                  JUNCTION     0.203    0.203     0  11:51        3.41        3.41       0.101
  J15                  JUNCTION     0.000    0.455     0  12:07           0        12.5       0.702
  J16                  JUNCTION     0.387    0.387     0  12:06        4.65        4.65       0.067
  CSO10                JUNCTION     0.115    0.115     0  12:06        1.53        1.53       0.070
  J12                  JUNCTION     0.000    0.361     0  12:17           0        9.27       9.749
  J4                   JUNCTION     0.000    0.039     0  12:01           0        1.07       0.331
  J6                   JUNCTION     0.000    0.028     0  14:06           0        1.02       0.368
  J2                   JUNCTION     0.000    0.000     0  00:00           0           0       0.000 ltr
  J19                  JUNCTION     0.000    0.271     0  19:39           0        10.3       0.122
  J9                   JUNCTION     0.000    0.075     0  13:40           0        2.74       0.708
  J14                  JUNCTION     0.000    0.124     0  22:09           0        4.17       0.164
  J17                  JUNCTION     0.000    0.033     0  20:01           0        1.14       0.591
  J7                   JUNCTION     0.000    0.054     0  12:57           0         1.1       0.463
  J11                  JUNCTION     0.000    0.225     0  12:11           0         3.7       0.420
  J18                  JUNCTION     0.000    0.109     0  12:07           0        1.53       0.241
  Out_to_WWTP          OUTFALL      0.000    0.271     0  19:40           0        10.3       0.000
  T5                   STORAGE      0.000    0.176     0  12:07           0        2.78      21.786
  T4                   STORAGE      0.000    0.079     0  12:02           0        2.05      21.407
  T6                   STORAGE      0.000    0.262     0  13:02           0         6.2      15.754
  T3                   STORAGE      0.000    0.352     0  12:19           0        8.44      19.454
  T2                   STORAGE      0.000    0.186     0  11:52           0        3.41      38.261
  T1                   STORAGE      0.000    0.407     0  12:12           0        12.4       7.166
  
  
  **********************
  Node Surcharge Summary
  **********************
  
  No nodes were surcharged.
  
  
  *********************
  Node Flooding Summary
  *********************
  
  Flooding refers to all water that overflows a node, whether it ponds or not.
  --------------------------------------------------------------------------
                                                             Total   Maximum
                                 Maximum   Time of Max       Flood    Ponded
                        Hours       Rate    Occurrence      Volume     Depth
  Node                 Flooded       CMS   days hr:min    10^6 ltr    Meters
  --------------------------------------------------------------------------
  T5                     10.75     0.086      0  12:57       1.780     0.000
  T4                      7.88     0.015      0  20:37       0.174     0.000
  T6                     10.39     0.262      0  13:02       2.023     0.000
  T3                      1.52     0.114      0  22:15       0.300     0.000
  T2                      3.45     0.053      0  20:32       0.324     0.000
  T1                      3.76     0.076      0  22:09       0.503     0.000
  
  
  **********************
  Storage Volume Summary
  **********************
  
  --------------------------------------------------------------------------------------------------
                         Average     Avg  Evap Exfil       Maximum     Max    Time of Max    Maximum
                          Volume    Pcnt  Pcnt  Pcnt        Volume    Pcnt     Occurrence    Outflow
  Storage Unit           1000 m3    Full  Loss  Loss       1000 m3    Full    days hr:min        CMS
  --------------------------------------------------------------------------------------------------
  T5                       0.284      57     0     0         0.500     100       0  12:55      0.000
  T4                       0.274      55     0     0         0.500     100       0  14:06      0.028
  T6                       0.360      60     0     0         0.600     100       0  12:46      0.075
  T3                       1.106      43     0     0         2.600     100       0  22:08      0.124
  T2                       0.466      47     0     0         1.000     100       0  20:01      0.033
  T1                       0.265      38     0     0         0.700     100       0  19:39      0.271
  
  
  ***********************
  Outfall Loading Summary
  ***********************
  
  -----------------------------------------------------------
                         Flow       Avg       Max       Total
                         Freq      Flow      Flow      Volume
  Outfall Node           Pcnt       CMS       CMS    10^6 ltr
  -----------------------------------------------------------
  Out_to_WWTP           99.43     0.122     0.271      10.335
  -----------------------------------------------------------
  System                99.43     0.122     0.271      10.335
  
  
  ********************
  Link Flow Summary
  ********************
  
  -----------------------------------------------------------------------------
                                 Maximum  Time of Max   Maximum    Max/    Max/
                                  |Flow|   Occurrence   |Veloc|    Full    Full
  Link                 Type          CMS  days hr:min     m/sec    Flow   Depth
  -----------------------------------------------------------------------------
  C1                   CONDUIT     0.000     0  00:00      0.00    0.00    0.06
  C6                   CONDUIT     0.037     0  12:03      1.18    0.60    0.46
  C2                   CONDUIT     0.028     0  14:49      1.15    0.03    0.16
  C9                   CONDUIT     0.051     0  13:03      0.98    0.17    0.31
  C16                  CONDUIT     0.206     0  12:18      1.35    0.02    0.10
  C3                   CONDUIT     0.124     0  22:11      1.91    0.05    0.14
  C19                  CONDUIT     0.033     0  20:52      0.60    0.01    0.14
  C11                  CONDUIT     0.152     0  23:01      1.46    0.01    0.08
  C20                  CONDUIT     0.358     0  12:07      2.70    0.01    0.09
  C22                  CONDUIT     0.102     0  12:08      1.37    0.05    0.21
  C12                  CONDUIT     0.075     0  15:03      0.94    0.01    0.28
  C17                  CONDUIT     0.361     0  12:17      2.38    0.02    0.28
  C10                  CONDUIT     0.262     0  13:02      0.93    0.03    0.56
  C13                  CONDUIT     0.352     0  12:19      0.66    0.02    0.75
  C18                  CONDUIT     0.186     0  11:52      1.01    0.01    0.53
  C23                  CONDUIT     0.407     0  12:12      0.97    0.04    0.57
  C4                   CONDUIT     0.176     0  12:07      1.12    0.04    0.57
  C7                   CONDUIT     0.079     0  12:02      0.80    0.02    0.55
  C14                  CONDUIT     0.271     0  19:40      2.08    0.02    0.09
  C5                   CONDUIT     0.039     0  12:01      1.13    0.66    0.65
  C8                   CONDUIT     0.054     0  12:57      1.26    0.67    0.53
  C15                  CONDUIT     0.225     0  12:11      2.56    0.72    0.54
  C21                  CONDUIT     0.109     0  12:07      1.68    0.63    0.44
  V4                   ORIFICE     0.028     0  14:06                      0.35
  V5                   ORIFICE     0.000     0  00:00                      0.00
  V1                   ORIFICE     0.271     0  19:39                      1.00
  V6                   ORIFICE     0.075     0  13:40                      0.43
  V3                   ORIFICE     0.124     0  22:09                      0.65
  V2                   ORIFICE     0.033     0  20:01                      0.24
  
  
  ***************************
  Flow Classification Summary
  ***************************
  
  -------------------------------------------------------------------------------------
                      Adjusted    ---------- Fraction of Time in Flow Class ---------- 
                       /Actual         Up    Down  Sub   Sup   Up    Down  Norm  Inlet 
  Conduit               Length    Dry  Dry   Dry   Crit  Crit  Crit  Crit  Ltd   Ctrl  
  -------------------------------------------------------------------------------------
  C1                      1.00   0.57  0.43  0.00  0.00  0.00  0.00  0.00  0.00  0.00
  C6                      1.00   0.00  0.00  0.00  0.01  0.99  0.00  0.00  0.00  0.00
  C2                      1.00   0.57  0.00  0.00  0.00  0.43  0.00  0.00  0.42  0.00
  C9                      1.00   0.00  0.00  0.00  1.00  0.00  0.00  0.00  1.00  0.00
  C16                     1.00   0.00  0.25  0.00  0.21  0.53  0.00  0.00  0.21  0.00
  C3                      1.00   0.57  0.00  0.00  0.00  0.43  0.00  0.00  0.00  0.00
  C19                     1.00   0.00  0.57  0.00  0.43  0.00  0.00  0.00  0.43  0.00
  C11                     1.00   0.00  0.57  0.00  0.01  0.42  0.00  0.00  0.43  0.00
  C20                     1.00   0.00  0.00  0.00  0.17  0.83  0.00  0.00  0.99  0.00
  C22                     1.00   0.00  0.00  0.00  0.89  0.11  0.00  0.00  1.00  0.00
  C12                     1.00   0.00  0.57  0.00  0.40  0.03  0.00  0.00  0.43  0.00
  C17                     1.00   0.00  0.00  0.00  0.30  0.70  0.00  0.00  0.93  0.00
  C10                     1.00   0.00  0.00  0.00  0.98  0.02  0.00  0.00  0.98  0.00
  C13                     1.00   0.00  0.00  0.00  0.93  0.07  0.00  0.00  0.62  0.00
  C18                     1.00   0.00  0.00  0.00  0.97  0.03  0.00  0.00  0.98  0.00
  C23                     1.00   0.00  0.00  0.00  0.52  0.48  0.00  0.00  0.92  0.00
  C4                      1.00   0.00  0.00  0.00  0.98  0.02  0.00  0.00  0.99  0.00
  C7                      1.00   0.00  0.00  0.00  0.97  0.03  0.00  0.00  0.98  0.00
  C14                     1.00   0.00  0.00  0.00  0.00  1.00  0.00  0.00  0.23  0.00
  C5                      1.00   0.00  0.00  0.00  0.92  0.08  0.00  0.00  0.99  0.00
  C8                      1.00   0.00  0.00  0.00  0.14  0.86  0.00  0.00  0.00  0.00
  C15                     1.00   0.25  0.00  0.00  0.00  0.75  0.00  0.00  0.00  0.00
  C21                     1.00   0.00  0.00  0.00  0.00  1.00  0.00  0.00  0.00  0.00
  
  
  *************************
  Conduit Surcharge Summary
  *************************
  
  ----------------------------------------------------------------------------
                                                           Hours        Hours 
                         --------- Hours Full --------   Above Full   Capacity
  Conduit                Both Ends  Upstream  Dnstream   Normal Flow   Limited
  ----------------------------------------------------------------------------
  C10                         0.01      0.01     15.44      0.01         0.01
  C13                         0.01      0.01     11.14      0.01         0.01
  C18                         0.01      0.01     11.65      0.01         0.01
  C23                         0.01      0.01     11.28      0.01         0.01
  C4                          0.01      0.01     15.77      0.01         0.01
  C7                          0.01      0.01     15.10      0.01         0.01
  

  Analysis begun on:  Tue Sep 21 09:48:43 2021
  Analysis ended on:  Tue Sep 21 09:48:43 2021
  Total elapsed time: < 1 sec