
  EPA STORM WATER MANAGEMENT MODEL - VERSION 5.1 (Build 5.3.0.dev0)
  --------------------------------------------------------------

  WARNING 09: time series interval greater than recording interval for Rain Gage RG1
  WARNING 09: time series interval greater than recording interval for Rain Gage RG2
  WARNING 09: time series interval greater than recording interval for Rain Gage RG3
  WARNING 09: time series interval greater than recording interval for Rain Gage RG4
  
  *********************************************************
  NOTE: The summary statistics displayed in this report are
  based on results found at every computational time step,  
  not just on results from each reporting time step.
  *********************************************************
  
  ****************
  Analysis Options
  ****************
  Flow Units ............... CMS
  Process Models:
    Rainfall/Runoff ........ YES
    RDII ................... NO
    Snowmelt ............... NO
    Groundwater ............ NO
    Flow Routing ........... YES
    Ponding Allowed ........ YES
    Water Quality .......... NO
  Infiltration Method ...... HORTON
  Flow Routing Method ...... DYNWAVE
  Surcharge Method ......... EXTRAN
  Starting Date ............ 08/28/2015 00:00:00
  Ending Date .............. 08/28/2015 23:40:00
  Antecedent Dry Days ...... 0.0
  Report Time Step ......... 00:01:00
  Wet Time Step ............ 00:01:00
  Dry Time Step ............ 00:01:00
  Routing Time Step ........ 5.00 sec
  Variable Time Step ....... YES
  Maximum Trials ........... 8
  Number of Threads ........ 1
  Head Tolerance ........... 0.001500 m
  
  
  **************************        Volume         Depth
  Runoff Quantity Continuity     hectare-m            mm
  **************************     ---------       -------
  Total Precipitation ......         2.201        12.216
  Evaporation Loss .........         0.000         0.000
  Infiltration Loss ........         0.000         0.000
  Surface Runoff ...........         2.186        12.132
  Final Storage ............         0.018         0.101
  Continuity Error (%) .....        -0.142
  
  
  **************************        Volume        Volume
  Flow Routing Continuity        hectare-m      10^6 ltr
  **************************     ---------     ---------
  Dry Weather Inflow .......         0.758         7.576
  Wet Weather Inflow .......         2.186        21.862
  Groundwater Inflow .......         0.000         0.000
  RDII Inflow ..............         0.000         0.000
  External Inflow ..........         0.000         0.000
  External Outflow .........         0.839         8.385
  Flooding Loss ............         1.224        12.236
  Evaporation Loss .........         0.000         0.000
  Exfiltration Loss ........         0.000         0.000
  Initial Stored Volume ....         0.000         0.000
  Final Stored Volume ......         0.691         6.910
  Continuity Error (%) .....         6.477
  
  
  *************************
  Highest Continuity Errors
  *************************
  Node T2 (21.74%)
  Node T5 (15.89%)
  Node T3 (15.79%)
  Node T4 (11.66%)
  Node T6 (6.83%)
  
  
  ***************************
  Time-Step Critical Elements
  ***************************
  None
  
  
  ********************************
  Highest Flow Instability Indexes
  ********************************
  All links are stable.
  
  
  *************************
  Routing Time Step Summary
  *************************
  Minimum Time Step           :     4.50 sec
  Average Time Step           :     5.00 sec
  Maximum Time Step           :     5.00 sec
  Percent in Steady State     :     0.00
  Average Iterations per Step :     2.18
  Percent Not Converging      :     0.50
  
  
  ***************************
  Subcatchment Runoff Summary
  ***************************
  
  ------------------------------------------------------------------------------------------------------------------------------
                            Total      Total      Total      Total     Imperv       Perv      Total       Total     Peak  Runoff
                           Precip      Runon       Evap      Infil     Runoff     Runoff     Runoff      Runoff   Runoff   Coeff
  Subcatchment                 mm         mm         mm         mm         mm         mm         mm    10^6 ltr      CMS
  ------------------------------------------------------------------------------------------------------------------------------
  SC01                      13.08       0.00       0.00       0.00      13.03       0.00      13.03        4.30     2.00   0.997
  SC02                      11.12       0.00       0.00       0.00      11.06       0.00      11.06        2.52     0.74   0.995
  SC03                      12.20       0.00       0.00       0.00      12.17       0.00      12.17        2.19     0.86   0.997
  SC04                      11.12       0.00       0.00       0.00      10.99       0.00      10.99        0.76     0.16   0.988
  SC05                      13.08       0.00       0.00       0.00      13.03       0.00      13.03        2.03     0.89   0.996
  SC06                      11.87       0.00       0.00       0.00      11.70       0.00      11.70        3.81     0.90   0.985
  SC07                      11.12       0.00       0.00       0.00      10.99       0.00      10.99        0.52     0.11   0.988
  SC08                      12.20       0.00       0.00       0.00      12.12       0.00      12.12        3.39     0.91   0.993
  SC09                      11.87       0.00       0.00       0.00      11.77       0.00      11.77        0.81     0.24   0.992
  SC010                     13.08       0.00       0.00       0.00      13.01       0.00      13.01        1.53     0.59   0.994
  
  
  ******************
  Node Depth Summary
  ******************
  
  ---------------------------------------------------------------------------------
                                 Average  Maximum  Maximum  Time of Max    Reported
                                   Depth    Depth      HGL   Occurrence   Max Depth
  Node                 Type       Meters   Meters   Meters  days hr:min      Meters
  ---------------------------------------------------------------------------------
  J1                   JUNCTION     0.05     0.30    34.30     0  16:21        0.30
  J3                   JUNCTION     0.04     0.12    18.12     0  17:24        0.12
  CSO7                 JUNCTION     0.10     1.20    35.20     0  15:45        1.20
  J5                   JUNCTION     0.05     0.16    32.16     0  15:52        0.16
  CSO9                 JUNCTION     0.12     2.00    42.00     0  15:30        2.00
  J8                   JUNCTION     0.08     0.32    36.32     0  15:42        0.32
  CSO8                 JUNCTION     0.12     2.00    34.00     0  14:45        2.00
  J10                  JUNCTION     0.06     0.33    29.33     0  15:22        0.32
  J13                  JUNCTION     0.04     0.22    29.22     0  15:51        0.22
  J15                  JUNCTION     0.10     0.43    15.43     0  16:27        0.43
  J16                  JUNCTION     0.05     0.33    30.33     0  16:21        0.32
  CSO10                JUNCTION     0.09     1.00    31.00     0  15:26        1.00
  J12                  JUNCTION     0.33     1.05    27.05     0  16:12        1.05
  J4                   JUNCTION     0.10     1.42    34.42     0  15:48        0.75
  J6                   JUNCTION     0.02     0.07    25.07     0  17:43        0.07
  J2                   JUNCTION     0.00     0.00    25.00     0  00:00        0.00
  J19                  JUNCTION     0.09     0.17     8.17     0  16:10        0.17
  J9                   JUNCTION     0.03     0.11    29.11     0  18:29        0.11
  J14                  JUNCTION     0.04     0.16    20.16     0  16:51        0.16
  J17                  JUNCTION     0.02     0.08    20.08     0  17:51        0.08
  J7                   JUNCTION     0.06     0.23    39.23     0  15:58        0.23
  J11                  JUNCTION     0.06     0.30    31.30     0  15:43        0.30
  J18                  JUNCTION     0.04     0.16    29.16     0  16:38        0.16
  Out_to_WWTP          OUTFALL      0.08     0.17     6.17     0  17:59        0.17
  T5                   STORAGE      2.66     5.00    32.00     0  15:11        5.00
  T4                   STORAGE      2.32     5.00    32.00     0  15:32        5.00
  T6                   STORAGE      2.72     5.00    36.00     0  14:30        5.00
  T3                   STORAGE      1.96     5.00    27.00     0  16:05        5.00
  T2                   STORAGE      2.04     5.00    26.00     0  15:55        5.00
  T1                   STORAGE      1.47     5.00    15.00     0  16:08        5.00
  
  
  *******************
  Node Inflow Summary
  *******************
  
  -------------------------------------------------------------------------------------------------
                                  Maximum  Maximum                  Lateral       Total        Flow
                                  Lateral    Total  Time of Max      Inflow      Inflow     Balance
                                   Inflow   Inflow   Occurrence      Volume      Volume       Error
  Node                 Type           CMS      CMS  days hr:min    10^6 ltr    10^6 ltr     Percent
  -------------------------------------------------------------------------------------------------
  J1                   JUNCTION     0.909    0.909     0  16:21        3.13        3.13      -0.005
  J3                   JUNCTION     0.000    0.152     0  16:53           0        3.67       0.900
  CSO7                 JUNCTION     0.119    0.119     0  15:51        1.09        1.09       0.010
  J5                   JUNCTION     0.165    0.236     0  15:51        1.01        2.05       0.024
  CSO9                 JUNCTION     0.247    0.247     0  15:41        1.19        1.19      -0.009
  J8                   JUNCTION     0.930    1.053     0  15:41        5.64        6.76       0.024
  CSO8                 JUNCTION     0.924    0.924     0  15:21        3.84        3.84      -0.018
  J10                  JUNCTION     0.874    1.315     0  15:21        2.94        6.53      -0.154
  J13                  JUNCTION     0.748    0.748     0  15:51        3.43        3.43      -0.050
  J15                  JUNCTION     0.000    2.053     0  16:21           0        11.4       0.594
  J16                  JUNCTION     2.014    2.014     0  16:21        5.38        5.38      -0.074
  CSO10                JUNCTION     0.589    0.589     0  16:21         1.8         1.8      -0.024
  J12                  JUNCTION     0.000    1.142     0  15:23           0        8.31       4.606
  J4                   JUNCTION     0.000    0.085     0  15:46           0        1.04       0.055
  J6                   JUNCTION     0.000    0.028     0  16:50           0       0.655       0.489
  J2                   JUNCTION     0.000    0.000     0  00:00           0           0       0.000 ltr
  J19                  JUNCTION     0.000    0.271     0  16:08           0         8.4       0.119
  J9                   JUNCTION     0.000    0.075     0  16:50           0        1.73       1.607
  J14                  JUNCTION     0.000    0.124     0  16:51           0        3.03       0.215
  J17                  JUNCTION     0.000    0.033     0  16:50           0       0.793       0.944
  J7                   JUNCTION     0.000    0.127     0  15:58           0        1.12       0.080
  J11                  JUNCTION     0.000    0.486     0  15:43           0        3.59       0.041
  J18                  JUNCTION     0.000    0.202     0  16:38           0         1.6      -0.044
  Out_to_WWTP          OUTFALL      0.000    0.271     0  16:10           0        8.39       0.000
  T5                   STORAGE      0.000    0.825     0  16:21           0        3.13      18.889
  T4                   STORAGE      0.000    0.224     0  15:52           0        2.05      13.205
  T6                   STORAGE      0.000    0.992     0  15:42           0        6.76       7.328
  T3                   STORAGE      0.000    1.026     0  15:27           0        7.94      18.744
  T2                   STORAGE      0.000    0.688     0  15:51           0        3.43      27.778
  T1                   STORAGE      0.000    1.654     0  16:28           0        11.3       4.234
  
  
  **********************
  Node Surcharge Summary
  **********************
  
  Surcharging occurs when water rises above the top of the highest conduit.
  ---------------------------------------------------------------------
                                               Max. Height   Min. Depth
                                   Hours       Above Crown    Below Rim
  Node                 Type      Surcharged         Meters       Meters
  ---------------------------------------------------------------------
  CSO7                 JUNCTION        0.84          0.945        0.000
  CSO9                 JUNCTION        0.81          1.682        0.000
  CSO8                 JUNCTION        1.13          1.547        0.000
  CSO10                JUNCTION        0.56          0.560        0.000
  J4                   JUNCTION        0.81          1.124        0.576
  
  
  *********************
  Node Flooding Summary
  *********************
  
  Flooding refers to all water that overflows a node, whether it ponds or not.
  --------------------------------------------------------------------------
                                                             Total   Maximum
                                 Maximum   Time of Max       Flood    Ponded
                        Hours       Rate    Occurrence      Volume     Depth
  Node                 Flooded       CMS   days hr:min    10^6 ltr    Meters
  --------------------------------------------------------------------------
  CSO7                    0.67     0.048      0  15:51       0.043     0.000
  CSO9                    0.42     0.120      0  15:41       0.071     0.000
  CSO8                    0.44     0.441      0  15:21       0.250     0.000
  CSO10                   0.40     0.387      0  16:21       0.202     0.000
  T5                      8.48     0.825      0  16:21       2.129     0.000
  T4                      2.44     0.224      0  15:52       0.832     0.000
  T6                      3.99     0.992      0  15:42       4.252     0.000
  T3                      1.57     0.829      0  16:15       1.235     0.000
  T2                      1.93     0.593      0  16:12       1.110     0.000
  T1                      1.63     1.383      0  16:28       2.111     0.000
  
  
  **********************
  Storage Volume Summary
  **********************
  
  --------------------------------------------------------------------------------------------------
                         Average     Avg  Evap Exfil       Maximum     Max    Time of Max    Maximum
                          Volume    Pcnt  Pcnt  Pcnt        Volume    Pcnt     Occurrence    Outflow
  Storage Unit           1000 m3    Full  Loss  Loss       1000 m3    Full    days hr:min        CMS
  --------------------------------------------------------------------------------------------------
  T5                       0.266      53     0     0         0.500     100       0  15:11      0.000
  T4                       0.232      46     0     0         0.500     100       0  15:32      0.028
  T6                       0.327      54     0     0         0.600     100       0  14:30      0.075
  T3                       1.021      39     0     0         2.600     100       0  16:05      0.257
  T2                       0.407      41     0     0         1.000     100       0  15:55      0.033
  T1                       0.206      29     0     0         0.700     100       0  16:08      0.271
  
  
  ***********************
  Outfall Loading Summary
  ***********************
  
  -----------------------------------------------------------
                         Flow       Avg       Max       Total
                         Freq      Flow      Flow      Volume
  Outfall Node           Pcnt       CMS       CMS    10^6 ltr
  -----------------------------------------------------------
  Out_to_WWTP           99.43     0.099     0.271       8.385
  -----------------------------------------------------------
  System                99.43     0.099     0.271       8.385
  
  
  ********************
  Link Flow Summary
  ********************
  
  -----------------------------------------------------------------------------
                                 Maximum  Time of Max   Maximum    Max/    Max/
                                  |Flow|   Occurrence   |Veloc|    Full    Full
  Link                 Type          CMS  days hr:min     m/sec    Flow   Depth
  -----------------------------------------------------------------------------
  C1                   CONDUIT     0.000     0  00:00      0.00    0.00    0.06
  C6                   CONDUIT     0.071     0  15:52      1.28    1.14    0.77
  C2                   CONDUIT     0.028     0  17:43      1.08    0.03    0.16
  C9                   CONDUIT     0.127     0  15:58      1.26    0.43    0.55
  C16                  CONDUIT     0.487     0  15:31      1.79    0.05    0.15
  C3                   CONDUIT     0.125     0  16:52      2.07    0.05    0.14
  C19                  CONDUIT     0.033     0  17:51      0.65    0.01    0.22
  C11                  CONDUIT     0.152     0  17:24      1.59    0.01    0.11
  C20                  CONDUIT     1.851     0  16:21      5.23    0.06    0.18
  C22                  CONDUIT     0.202     0  16:38      1.68    0.09    0.37
  C12                  CONDUIT     0.075     0  18:29      0.17    0.01    0.28
  C17                  CONDUIT     1.142     0  15:23      3.52    0.06    0.32
  C10                  CONDUIT     0.992     0  15:42      0.93    0.10    0.61
  C13                  CONDUIT     1.026     0  15:27      0.66    0.06    0.76
  C18                  CONDUIT     0.688     0  15:51      1.01    0.03    0.56
  C23                  CONDUIT     1.654     0  16:28      1.37    0.18    0.64
  C4                   CONDUIT     0.825     0  16:21      1.52    0.20    0.65
  C7                   CONDUIT     0.224     0  15:52      0.80    0.05    0.58
  C14                  CONDUIT     0.271     0  16:10      2.08    0.02    0.09
  C5                   CONDUIT     0.085     0  15:46      1.67    1.45    1.00
  C8                   CONDUIT     0.127     0  15:58      1.82    1.60    0.86
  C15                  CONDUIT     0.486     0  15:43      3.49    1.55    0.83
  C21                  CONDUIT     0.202     0  16:38      1.86    1.16    0.69
  V4                   ORIFICE     0.028     0  16:50                      0.35
  V5                   ORIFICE     0.000     0  00:00                      0.00
  V1                   ORIFICE     0.271     0  16:08                      1.00
  V6                   ORIFICE     0.075     0  16:50                      0.43
  V3                   ORIFICE     0.124     0  16:51                      0.65
  V2                   ORIFICE     0.033     0  16:50                      0.24
  
  
  ***************************
  Flow Classification Summary
  ***************************
  
  -------------------------------------------------------------------------------------
                      Adjusted    ---------- Fraction of Time in Flow Class ---------- 
                       /Actual         Up    Down  Sub   Sup   Up    Down  Norm  Inlet 
  Conduit               Length    Dry  Dry   Dry   Crit  Crit  Crit  Crit  Ltd   Ctrl  
  -------------------------------------------------------------------------------------
  C1                      1.00   0.70  0.30  0.00  0.00  0.00  0.00  0.00  0.00  0.00
  C6                      1.00   0.00  0.00  0.00  0.05  0.95  0.00  0.00  0.00  0.00
  C2                      1.00   0.70  0.00  0.00  0.00  0.30  0.00  0.00  0.29  0.00
  C9                      1.00   0.00  0.00  0.00  1.00  0.00  0.00  0.00  1.00  0.00
  C16                     1.00   0.00  0.25  0.00  0.58  0.16  0.00  0.00  0.55  0.00
  C3                      1.00   0.70  0.00  0.00  0.00  0.30  0.00  0.00  0.00  0.00
  C19                     1.00   0.00  0.70  0.00  0.30  0.00  0.00  0.00  0.30  0.00
  C11                     1.00   0.00  0.70  0.00  0.02  0.28  0.00  0.00  0.30  0.00
  C20                     1.00   0.00  0.00  0.00  0.26  0.74  0.00  0.00  0.99  0.00
  C22                     1.00   0.00  0.00  0.00  0.89  0.11  0.00  0.00  1.00  0.00
  C12                     1.00   0.00  0.70  0.00  0.30  0.00  0.00  0.00  0.30  0.00
  C17                     1.00   0.00  0.00  0.00  0.34  0.66  0.00  0.00  0.92  0.00
  C10                     1.00   0.00  0.00  0.00  0.98  0.02  0.00  0.00  0.98  0.00
  C13                     1.00   0.00  0.00  0.00  0.93  0.07  0.00  0.00  0.60  0.00
  C18                     1.00   0.00  0.00  0.00  0.97  0.03  0.00  0.00  0.98  0.00
  C23                     1.00   0.00  0.00  0.00  0.45  0.55  0.00  0.00  0.92  0.00
  C4                      1.00   0.00  0.00  0.00  0.98  0.02  0.00  0.00  0.99  0.00
  C7                      1.00   0.00  0.00  0.00  0.97  0.03  0.00  0.00  0.98  0.00
  C14                     1.00   0.00  0.00  0.00  0.00  1.00  0.00  0.00  0.42  0.00
  C5                      1.00   0.00  0.00  0.00  0.94  0.06  0.00  0.00  0.95  0.00
  C8                      1.00   0.00  0.00  0.00  0.26  0.74  0.00  0.00  0.00  0.00
  C15                     1.00   0.25  0.00  0.00  0.00  0.75  0.00  0.00  0.00  0.00
  C21                     1.00   0.00  0.00  0.00  0.00  1.00  0.00  0.00  0.00  0.00
  
  
  *************************
  Conduit Surcharge Summary
  *************************
  
  ----------------------------------------------------------------------------
                                                           Hours        Hours 
                         --------- Hours Full --------   Above Full   Capacity
  Conduit                Both Ends  Upstream  Dnstream   Normal Flow   Limited
  ----------------------------------------------------------------------------
  C6                          0.01      0.81      0.01      0.71         0.01
  C10                         0.01      0.01     15.44      0.01         0.01
  C13                         0.01      0.01      8.72      0.01         0.01
  C18                         0.01      0.01      8.79      0.01         0.01
  C23                         0.01      0.01      8.41      0.01         0.01
  C4                          0.01      0.01     15.90      0.01         0.01
  C7                          0.01      0.01     15.16      0.01         0.01
  C5                          0.80      0.84      0.97      0.93         0.77
  C8                          0.01      0.81      0.01      0.81         0.01
  C15                         0.01      1.13      0.01      1.25         0.01
  C21                         0.01      0.56      0.01      0.52         0.01
  

  Analysis begun on:  Tue Sep 21 09:55:17 2021
  Analysis ended on:  Tue Sep 21 09:55:17 2021
  Total elapsed time: < 1 sec