
  EPA STORM WATER MANAGEMENT MODEL - VERSION 5.1 (Build 5.3.0.dev0)
  --------------------------------------------------------------

  WARNING 09: time series interval greater than recording interval for Rain Gage RG1
  WARNING 09: time series interval greater than recording interval for Rain Gage RG2
  WARNING 09: time series interval greater than recording interval for Rain Gage RG3
  WARNING 09: time series interval greater than recording interval for Rain Gage RG4
  
  *********************************************************
  NOTE: The summary statistics displayed in this report are
  based on results found at every computational time step,  
  not just on results from each reporting time step.
  *********************************************************
  
  ****************
  Analysis Options
  ****************
  Flow Units ............... CMS
  Process Models:
    Rainfall/Runoff ........ YES
    RDII ................... NO
    Snowmelt ............... NO
    Groundwater ............ NO
    Flow Routing ........... YES
    Ponding Allowed ........ YES
    Water Quality .......... NO
  Infiltration Method ...... HORTON
  Flow Routing Method ...... DYNWAVE
  Surcharge Method ......... EXTRAN
  Starting Date ............ 08/28/2015 00:00:00
  Ending Date .............. 08/28/2015 23:40:00
  Antecedent Dry Days ...... 0.0
  Report Time Step ......... 00:01:00
  Wet Time Step ............ 00:01:00
  Dry Time Step ............ 00:01:00
  Routing Time Step ........ 5.00 sec
  Variable Time Step ....... YES
  Maximum Trials ........... 8
  Number of Threads ........ 1
  Head Tolerance ........... 0.001500 m
  
  
  **************************        Volume         Depth
  Runoff Quantity Continuity     hectare-m            mm
  **************************     ---------       -------
  Total Precipitation ......         2.353        13.059
  Evaporation Loss .........         0.000         0.000
  Infiltration Loss ........         0.000         0.000
  Surface Runoff ...........         2.282        12.665
  Final Storage ............         0.083         0.462
  Continuity Error (%) .....        -0.523
  
  
  **************************        Volume        Volume
  Flow Routing Continuity        hectare-m      10^6 ltr
  **************************     ---------     ---------
  Dry Weather Inflow .......         0.758         7.576
  Wet Weather Inflow .......         2.282        22.817
  Groundwater Inflow .......         0.000         0.000
  RDII Inflow ..............         0.000         0.000
  External Inflow ..........         0.000         0.000
  External Outflow .........         0.397         3.971
  Flooding Loss ............         1.522        15.219
  Evaporation Loss .........         0.000         0.000
  Exfiltration Loss ........         0.000         0.000
  Initial Stored Volume ....         0.000         0.000
  Final Stored Volume ......         0.839         8.393
  Continuity Error (%) .....         9.245
  
  
  *************************
  Highest Continuity Errors
  *************************
  Node T3 (32.51%)
  Node T2 (19.63%)
  Node J12 (16.34%)
  Node T5 (16.09%)
  Node T4 (15.38%)
  
  
  ***************************
  Time-Step Critical Elements
  ***************************
  None
  
  
  ********************************
  Highest Flow Instability Indexes
  ********************************
  All links are stable.
  
  
  *************************
  Routing Time Step Summary
  *************************
  Minimum Time Step           :     0.89 sec
  Average Time Step           :     5.00 sec
  Maximum Time Step           :     5.00 sec
  Percent in Steady State     :     0.00
  Average Iterations per Step :     2.12
  Percent Not Converging      :     0.58
  
  
  ***************************
  Subcatchment Runoff Summary
  ***************************
  
  ------------------------------------------------------------------------------------------------------------------------------
                            Total      Total      Total      Total     Imperv       Perv      Total       Total     Peak  Runoff
                           Precip      Runon       Evap      Infil     Runoff     Runoff     Runoff      Runoff   Runoff   Coeff
  Subcatchment                 mm         mm         mm         mm         mm         mm         mm    10^6 ltr      CMS
  ------------------------------------------------------------------------------------------------------------------------------
  SC01                      13.18       0.00       0.00       0.00      12.96       0.00      12.96        4.28     4.83   0.983
  SC02                      17.17       0.00       0.00       0.00      17.02       0.00      17.02        3.87     4.41   0.991
  SC03                       9.18       0.00       0.00       0.00       9.07       0.00       9.07        1.63     1.68   0.988
  SC04                      17.17       0.00       0.00       0.00      16.47       0.00      16.47        1.14     0.72   0.959
  SC05                      13.18       0.00       0.00       0.00      12.92       0.00      12.92        2.02     2.11   0.980
  SC06                      13.81       0.00       0.00       0.00      12.94       0.00      12.94        4.21     1.92   0.937
  SC07                      17.17       0.00       0.00       0.00      16.47       0.00      16.47        0.78     0.50   0.960
  SC08                       9.18       0.00       0.00       0.00       8.82       0.00       8.82        2.47     1.30   0.961
  SC09                      13.81       0.00       0.00       0.00      13.35       0.00      13.35        0.92     0.60   0.967
  SC010                     13.18       0.00       0.00       0.00      12.80       0.00      12.80        1.50     1.29   0.971
  
  
  ******************
  Node Depth Summary
  ******************
  
  ---------------------------------------------------------------------------------
                                 Average  Maximum  Maximum  Time of Max    Reported
                                   Depth    Depth      HGL   Occurrence   Max Depth
  Node                 Type       Meters   Meters   Meters  days hr:min      Meters
  ---------------------------------------------------------------------------------
  J1                   JUNCTION     0.05     0.57    34.57     0  21:31        0.57
  J3                   JUNCTION     0.00     0.00    18.00     0  00:00        0.00
  CSO7                 JUNCTION     0.11     1.20    35.20     0  21:20        1.20
  J5                   JUNCTION     0.05     0.29    32.29     0  21:26        0.29
  CSO9                 JUNCTION     0.12     2.00    42.00     0  21:20        2.00
  J8                   JUNCTION     0.08     0.45    36.45     0  21:27        0.45
  CSO8                 JUNCTION     0.10     2.00    34.00     0  21:15        2.00
  J10                  JUNCTION     0.06     0.38    29.38     0  21:17        0.38
  J13                  JUNCTION     0.05     0.52    29.52     0  21:21        0.50
  J15                  JUNCTION     0.07     0.61    15.61     0  21:33        0.61
  J16                  JUNCTION     0.05     0.54    30.54     0  21:31        0.50
  CSO10                JUNCTION     0.09     1.00    31.00     0  21:25        1.00
  J12                  JUNCTION     0.11     1.01    27.01     0  23:16        1.01
  J4                   JUNCTION     0.11     1.02    34.02     0  21:27        0.77
  J6                   JUNCTION     0.00     0.00    25.00     0  00:00        0.00
  J2                   JUNCTION     0.00     0.00    25.00     0  00:00        0.00
  J19                  JUNCTION     0.06     0.17     8.17     0  21:41        0.17
  J9                   JUNCTION     0.00     0.00    29.00     0  00:00        0.00
  J14                  JUNCTION     0.00     0.00    20.00     0  00:00        0.00
  J17                  JUNCTION     0.00     0.00    20.00     0  00:00        0.00
  J7                   JUNCTION     0.06     0.23    39.23     0  21:51        0.23
  J11                  JUNCTION     0.05     0.30    31.30     0  21:33        0.30
  J18                  JUNCTION     0.04     0.16    29.16     0  21:54        0.16
  Out_to_WWTP          OUTFALL      0.06     0.17     6.17     0  22:47        0.17
  T5                   STORAGE      3.32     5.00    32.00     0  15:25        5.00
  T4                   STORAGE      2.85     5.00    32.00     0  19:36        5.00
  T6                   STORAGE      3.80     5.00    36.00     0  11:27        5.00
  T3                   STORAGE      1.25     5.00    27.00     0  23:02        5.00
  T2                   STORAGE      1.96     5.00    26.00     0  21:25        5.00
  T1                   STORAGE      0.52     5.00    15.00     0  21:40        5.00
  
  
  *******************
  Node Inflow Summary
  *******************
  
  -------------------------------------------------------------------------------------------------
                                  Maximum  Maximum                  Lateral       Total        Flow
                                  Lateral    Total  Time of Max      Inflow      Inflow     Balance
                                   Inflow   Inflow   Occurrence      Volume      Volume       Error
  Node                 Type           CMS      CMS  days hr:min    10^6 ltr    10^6 ltr     Percent
  -------------------------------------------------------------------------------------------------
  J1                   JUNCTION     2.120    2.120     0  21:31        3.11        3.11      -0.027
  J3                   JUNCTION     0.000    0.000     0  00:00           0           0       0.000 ltr
  CSO7                 JUNCTION     0.501    0.501     0  21:26        1.35        1.35       0.026
  J5                   JUNCTION     0.720    0.787     0  21:26        1.38        2.38       0.177
  CSO9                 JUNCTION     0.608    0.608     0  21:26         1.3         1.3      -0.024
  J8                   JUNCTION     1.939    2.039     0  21:26        6.04        7.01       0.150
  CSO8                 JUNCTION     1.299    1.299     0  21:21        2.92        2.92      -0.060
  J10                  JUNCTION     1.691    1.813     0  21:16        2.38        4.88      -0.095
  J13                  JUNCTION     4.418    4.418     0  21:21        4.78        4.78      -0.019
  J15                  JUNCTION     0.000    4.891     0  21:31           0        6.63       0.385
  J16                  JUNCTION     4.840    4.840     0  21:31        5.35        5.35      -0.177
  CSO10                JUNCTION     1.292    1.292     0  21:31        1.77        1.77      -0.025
  J12                  JUNCTION     0.000    1.526     0  21:22           0        5.03      19.526
  J4                   JUNCTION     0.000    0.085     0  21:25           0           1       0.259
  J6                   JUNCTION     0.000    0.000     0  00:00           0           0       0.000 ltr
  J2                   JUNCTION     0.000    0.000     0  00:00           0           0       0.000 ltr
  J19                  JUNCTION     0.000    0.271     0  21:40           0        3.98       0.282
  J9                   JUNCTION     0.000    0.000     0  00:00           0           0       0.000 ltr
  J14                  JUNCTION     0.000    0.000     0  00:00           0           0       0.000 ltr
  J17                  JUNCTION     0.000    0.000     0  00:00           0           0       0.000 ltr
  J7                   JUNCTION     0.000    0.127     0  21:51           0       0.972       0.514
  J11                  JUNCTION     0.000    0.486     0  21:33           0        2.51       0.615
  J18                  JUNCTION     0.000    0.202     0  21:54           0        1.27       0.235
  Out_to_WWTP          OUTFALL      0.000    0.271     0  21:41           0        3.97       0.000
  T5                   STORAGE      0.000    1.842     0  21:32           0        3.11      19.179
  T4                   STORAGE      0.000    0.741     0  21:26           0        2.38      18.180
  T6                   STORAGE      0.000    1.874     0  21:27           0           7      13.830
  T3                   STORAGE      0.000    1.374     0  21:23           0        4.21      48.179
  T2                   STORAGE      0.000    3.998     0  21:21           0        4.78      24.417
  T1                   STORAGE      0.000    3.136     0  21:33           0         6.6       9.865
  
  
  **********************
  Node Surcharge Summary
  **********************
  
  Surcharging occurs when water rises above the top of the highest conduit.
  ---------------------------------------------------------------------
                                               Max. Height   Min. Depth
                                   Hours       Above Crown    Below Rim
  Node                 Type      Surcharged         Meters       Meters
  ---------------------------------------------------------------------
  CSO7                 JUNCTION        1.14          0.945        0.000
  CSO9                 JUNCTION        0.82          1.682        0.000
  CSO8                 JUNCTION        0.63          1.547        0.000
  CSO10                JUNCTION        0.63          0.560        0.000
  J4                   JUNCTION        1.05          0.723        0.977
  
  
  *********************
  Node Flooding Summary
  *********************
  
  Flooding refers to all water that overflows a node, whether it ponds or not.
  --------------------------------------------------------------------------
                                                             Total   Maximum
                                 Maximum   Time of Max       Flood    Ponded
                        Hours       Rate    Occurrence      Volume     Depth
  Node                 Flooded       CMS   days hr:min    10^6 ltr    Meters
  --------------------------------------------------------------------------
  CSO7                    0.93     0.417      0  21:26       0.344     0.000
  CSO9                    0.52     0.481      0  21:26       0.331     0.000
  CSO8                    0.31     0.811      0  21:21       0.410     0.000
  CSO10                   0.53     1.083      0  21:31       0.506     0.000
  T5                      8.24     1.841      0  21:32       2.109     0.000
  T4                      4.06     0.741      0  21:26       1.514     0.000
  T6                     12.21     1.874      0  21:27       5.548     0.000
  T3                      0.29     0.255      0  23:09       0.091     0.000
  T2                      2.25     3.602      0  21:26       2.843     0.000
  T1                      1.01     1.853      0  21:40       1.523     0.000
  
  
  **********************
  Storage Volume Summary
  **********************
  
  --------------------------------------------------------------------------------------------------
                         Average     Avg  Evap Exfil       Maximum     Max    Time of Max    Maximum
                          Volume    Pcnt  Pcnt  Pcnt        Volume    Pcnt     Occurrence    Outflow
  Storage Unit           1000 m3    Full  Loss  Loss       1000 m3    Full    days hr:min        CMS
  --------------------------------------------------------------------------------------------------
  T5                       0.332      66     0     0         0.500     100       0  15:25      0.000
  T4                       0.285      57     0     0         0.500     100       0  19:36      0.000
  T6                       0.456      76     0     0         0.600     100       0  11:27      0.000
  T3                       0.648      25     0     0         2.600     100       0  23:02      0.201
  T2                       0.393      39     0     0         1.000     100       0  21:25      0.000
  T1                       0.073      10     0     0         0.700     100       0  21:40      0.271
  
  
  ***********************
  Outfall Loading Summary
  ***********************
  
  -----------------------------------------------------------
                         Flow       Avg       Max       Total
                         Freq      Flow      Flow      Volume
  Outfall Node           Pcnt       CMS       CMS    10^6 ltr
  -----------------------------------------------------------
  Out_to_WWTP           99.65     0.047     0.271       3.971
  -----------------------------------------------------------
  System                99.65     0.047     0.271       3.971
  
  
  ********************
  Link Flow Summary
  ********************
  
  -----------------------------------------------------------------------------
                                 Maximum  Time of Max   Maximum    Max/    Max/
                                  |Flow|   Occurrence   |Veloc|    Full    Full
  Link                 Type          CMS  days hr:min     m/sec    Flow   Depth
  -----------------------------------------------------------------------------
  C1                   CONDUIT     0.000     0  00:00      0.00    0.00    0.00
  C6                   CONDUIT     0.076     0  21:28      1.28    1.20    0.97
  C2                   CONDUIT     0.000     0  00:00      0.00    0.00    0.00
  C9                   CONDUIT     0.127     0  21:51      1.21    0.43    0.67
  C16                  CONDUIT     0.485     0  21:28      1.80    0.05    0.16
  C3                   CONDUIT     0.000     0  00:00      0.00    0.00    0.00
  C19                  CONDUIT     0.000     0  00:00      0.00    0.00    0.30
  C11                  CONDUIT     0.000     0  00:00      0.00    0.00    0.15
  C20                  CONDUIT     4.693     0  21:31      7.49    0.15    0.26
  C22                  CONDUIT     0.202     0  21:54      1.69    0.09    0.48
  C12                  CONDUIT     0.000     0  00:00      0.00    0.00    0.25
  C17                  CONDUIT     1.526     0  21:22      4.59    0.08    0.28
  C10                  CONDUIT     1.874     0  21:27      1.62    0.19    0.65
  C13                  CONDUIT     1.374     0  21:23      1.70    0.08    0.75
  C18                  CONDUIT     3.998     0  21:21      2.29    0.15    0.63
  C23                  CONDUIT     3.136     0  21:33      3.35    0.35    0.70
  C4                   CONDUIT     1.842     0  21:32      2.80    0.45    0.79
  C7                   CONDUIT     0.741     0  21:26      1.57    0.18    0.64
  C14                  CONDUIT     0.271     0  21:41      2.08    0.02    0.09
  C5                   CONDUIT     0.085     0  21:25      1.92    1.46    1.00
  C8                   CONDUIT     0.127     0  21:51      2.15    1.60    0.86
  C15                  CONDUIT     0.486     0  21:33      3.89    1.55    0.83
  C21                  CONDUIT     0.202     0  21:54      2.05    1.16    0.69
  V4                   ORIFICE     0.000     0  00:00                      0.00
  V5                   ORIFICE     0.000     0  00:00                      0.00
  V1                   ORIFICE     0.271     0  21:40                      1.00
  V6                   ORIFICE     0.000     0  00:00                      0.00
  V3                   ORIFICE     0.000     0  00:00                      0.00
  V2                   ORIFICE     0.000     0  00:00                      0.00
  
  
  ***************************
  Flow Classification Summary
  ***************************
  
  -------------------------------------------------------------------------------------
                      Adjusted    ---------- Fraction of Time in Flow Class ---------- 
                       /Actual         Up    Down  Sub   Sup   Up    Down  Norm  Inlet 
  Conduit               Length    Dry  Dry   Dry   Crit  Crit  Crit  Crit  Ltd   Ctrl  
  -------------------------------------------------------------------------------------
  C1                      1.00   1.00  0.00  0.00  0.00  0.00  0.00  0.00  0.00  0.00
  C6                      1.00   0.00  0.00  0.00  0.07  0.93  0.00  0.00  0.01  0.00
  C2                      1.00   1.00  0.00  0.00  0.00  0.00  0.00  0.00  0.00  0.00
  C9                      1.00   0.00  0.00  0.00  1.00  0.00  0.00  0.00  1.00  0.00
  C16                     1.00   0.00  0.00  0.00  0.89  0.11  0.00  0.00  0.68  0.00
  C3                      1.00   1.00  0.00  0.00  0.00  0.00  0.00  0.00  0.00  0.00
  C19                     1.00   0.00  1.00  0.00  0.00  0.00  0.00  0.00  0.00  0.00
  C11                     1.00   0.00  1.00  0.00  0.00  0.00  0.00  0.00  0.00  0.00
  C20                     1.00   0.00  0.00  0.00  0.00  1.00  0.00  0.00  0.99  0.00
  C22                     1.00   0.00  0.00  0.00  0.76  0.24  0.00  0.00  1.00  0.00
  C12                     1.00   0.00  1.00  0.00  0.00  0.00  0.00  0.00  0.00  0.00
  C17                     1.00   0.00  0.00  0.00  0.06  0.94  0.00  0.00  0.96  0.00
  C10                     1.00   0.00  0.00  0.00  0.98  0.02  0.00  0.00  0.99  0.00
  C13                     1.00   0.00  0.00  0.00  0.97  0.03  0.00  0.00  0.91  0.00
  C18                     1.00   0.00  0.00  0.00  0.99  0.01  0.00  0.00  0.99  0.00
  C23                     1.00   0.00  0.00  0.00  0.23  0.77  0.00  0.00  0.98  0.00
  C4                      1.00   0.00  0.00  0.00  0.99  0.01  0.00  0.00  0.99  0.00
  C7                      1.00   0.00  0.00  0.00  0.98  0.02  0.00  0.00  0.98  0.00
  C14                     1.00   0.00  0.00  0.00  0.00  1.00  0.00  0.00  0.46  0.00
  C5                      1.00   0.00  0.00  0.00  0.95  0.05  0.00  0.00  0.94  0.00
  C8                      1.00   0.00  0.00  0.00  0.12  0.88  0.00  0.00  0.00  0.00
  C15                     1.00   0.00  0.00  0.00  0.04  0.96  0.00  0.00  0.03  0.00
  C21                     1.00   0.00  0.00  0.00  0.00  1.00  0.00  0.00  0.00  0.00
  
  
  *************************
  Conduit Surcharge Summary
  *************************
  
  ----------------------------------------------------------------------------
                                                           Hours        Hours 
                         --------- Hours Full --------   Above Full   Capacity
  Conduit                Both Ends  Upstream  Dnstream   Normal Flow   Limited
  ----------------------------------------------------------------------------
  C6                          0.01      1.05      0.01      0.97         0.01
  C10                         0.01      0.01     21.27      0.01         0.01
  C13                         0.01      0.01      2.31      0.01         0.01
  C18                         0.01      0.01     10.22      0.01         0.01
  C23                         0.01      0.01      2.11      0.01         0.01
  C4                          0.01      0.01     22.19      0.01         0.01
  C7                          0.01      0.01     18.66      0.01         0.01
  C5                          1.06      1.14      1.16      1.12         1.02
  C8                          0.01      0.82      0.01      0.82         0.01
  C15                         0.01      0.63      0.01      0.77         0.01
  C21                         0.01      0.63      0.01      0.60         0.01
  

  Analysis begun on:  Tue Sep 21 09:59:02 2021
  Analysis ended on:  Tue Sep 21 09:59:02 2021
  Total elapsed time: < 1 sec