
  EPA STORM WATER MANAGEMENT MODEL - VERSION 5.1 (Build 5.3.0.dev0)
  --------------------------------------------------------------

  WARNING 09: time series interval greater than recording interval for Rain Gage RG1
  WARNING 09: time series interval greater than recording interval for Rain Gage RG2
  WARNING 09: time series interval greater than recording interval for Rain Gage RG3
  WARNING 09: time series interval greater than recording interval for Rain Gage RG4
  
  *********************************************************
  NOTE: The summary statistics displayed in this report are
  based on results found at every computational time step,  
  not just on results from each reporting time step.
  *********************************************************
  
  ****************
  Analysis Options
  ****************
  Flow Units ............... CMS
  Process Models:
    Rainfall/Runoff ........ YES
    RDII ................... NO
    Snowmelt ............... NO
    Groundwater ............ NO
    Flow Routing ........... YES
    Ponding Allowed ........ YES
    Water Quality .......... NO
  Infiltration Method ...... HORTON
  Flow Routing Method ...... DYNWAVE
  Surcharge Method ......... EXTRAN
  Starting Date ............ 08/28/2015 00:00:00
  Ending Date .............. 08/28/2015 23:40:00
  Antecedent Dry Days ...... 0.0
  Report Time Step ......... 00:01:00
  Wet Time Step ............ 00:01:00
  Dry Time Step ............ 00:01:00
  Routing Time Step ........ 5.00 sec
  Variable Time Step ....... YES
  Maximum Trials ........... 8
  Number of Threads ........ 1
  Head Tolerance ........... 0.001500 m
  
  
  **************************        Volume         Depth
  Runoff Quantity Continuity     hectare-m            mm
  **************************     ---------       -------
  Total Precipitation ......         2.307        12.802
  Evaporation Loss .........         0.000         0.000
  Infiltration Loss ........         0.000         0.000
  Surface Runoff ...........         2.282        12.666
  Final Storage ............         0.028         0.155
  Continuity Error (%) .....        -0.148
  
  
  **************************        Volume        Volume
  Flow Routing Continuity        hectare-m      10^6 ltr
  **************************     ---------     ---------
  Dry Weather Inflow .......         0.758         7.576
  Wet Weather Inflow .......         2.282        22.824
  Groundwater Inflow .......         0.000         0.000
  RDII Inflow ..............         0.000         0.000
  External Inflow ..........         0.000         0.000
  External Outflow .........         1.753        17.527
  Flooding Loss ............         0.463         4.627
  Evaporation Loss .........         0.000         0.000
  Exfiltration Loss ........         0.000         0.000
  Initial Stored Volume ....         0.000         0.000
  Final Stored Volume ......         0.641         6.405
  Continuity Error (%) .....         6.051
  
  
  *************************
  Highest Continuity Errors
  *************************
  Node T2 (18.47%)
  Node T5 (15.99%)
  Node T3 (10.02%)
  Node T4 (8.12%)
  Node T6 (7.94%)
  
  
  ***************************
  Time-Step Critical Elements
  ***************************
  None
  
  
  ********************************
  Highest Flow Instability Indexes
  ********************************
  Link C13 (1)
  
  
  *************************
  Routing Time Step Summary
  *************************
  Minimum Time Step           :     4.50 sec
  Average Time Step           :     5.00 sec
  Maximum Time Step           :     5.00 sec
  Percent in Steady State     :     0.00
  Average Iterations per Step :     2.16
  Percent Not Converging      :     0.13
  
  
  ***************************
  Subcatchment Runoff Summary
  ***************************
  
  ------------------------------------------------------------------------------------------------------------------------------
                            Total      Total      Total      Total     Imperv       Perv      Total       Total     Peak  Runoff
                           Precip      Runon       Evap      Infil     Runoff     Runoff     Runoff      Runoff   Runoff   Coeff
  Subcatchment                 mm         mm         mm         mm         mm         mm         mm    10^6 ltr      CMS
  ------------------------------------------------------------------------------------------------------------------------------
  SC01                      12.98       0.00       0.00       0.00      12.90       0.00      12.90        4.26     0.75   0.994
  SC02                      10.57       0.00       0.00       0.00      10.48       0.00      10.48        2.38     0.51   0.992
  SC03                      12.38       0.00       0.00       0.00      12.35       0.00      12.35        2.22     0.95   0.997
  SC04                      10.57       0.00       0.00       0.00      10.35       0.00      10.35        0.71     0.10   0.979
  SC05                      12.98       0.00       0.00       0.00      12.89       0.00      12.89        2.01     0.34   0.993
  SC06                      14.97       0.00       0.00       0.00      14.67       0.00      14.67        4.78     0.50   0.980
  SC07                      10.57       0.00       0.00       0.00      10.35       0.00      10.35        0.49     0.07   0.980
  SC08                      12.38       0.00       0.00       0.00      12.26       0.00      12.26        3.43     0.99   0.990
  SC09                      14.97       0.00       0.00       0.00      14.81       0.00      14.81        1.02     0.15   0.989
  SC010                     12.98       0.00       0.00       0.00      12.86       0.00      12.86        1.51     0.23   0.991
  
  
  ******************
  Node Depth Summary
  ******************
  
  ---------------------------------------------------------------------------------
                                 Average  Maximum  Maximum  Time of Max    Reported
                                   Depth    Depth      HGL   Occurrence   Max Depth
  Node                 Type       Meters   Meters   Meters  days hr:min      Meters
  ---------------------------------------------------------------------------------
  J1                   JUNCTION     0.06     0.19    34.19     0  03:26        0.19
  J3                   JUNCTION     0.10     0.12    18.12     0  05:31        0.12
  CSO7                 JUNCTION     0.08     1.13    35.13     0  03:11        0.67
  J5                   JUNCTION     0.05     0.13    32.13     0  03:17        0.13
  CSO9                 JUNCTION     0.12     2.00    42.00     0  02:35        2.00
  J8                   JUNCTION     0.09     0.25    36.25     0  03:22        0.24
  CSO8                 JUNCTION     0.12     2.00    34.00     0  02:16        2.00
  J10                  JUNCTION     0.08     0.34    29.34     0  02:32        0.33
  J13                  JUNCTION     0.05     0.18    29.18     0  03:12        0.18
  J15                  JUNCTION     0.16     0.32    15.32     0  03:33        0.32
  J16                  JUNCTION     0.06     0.20    30.20     0  19:42        0.20
  CSO10                JUNCTION     0.10     1.00    31.00     0  03:21        1.00
  J12                  JUNCTION     0.18     0.43    26.43     0  21:06        0.43
  J4                   JUNCTION     0.09     0.26    33.26     0  03:19        0.26
  J6                   JUNCTION     0.06     0.07    25.07     0  05:22        0.07
  J2                   JUNCTION     0.00     0.00    25.00     0  00:00        0.00
  J19                  JUNCTION     0.15     0.17     8.17     0  03:36        0.17
  J9                   JUNCTION     0.09     0.11    29.11     0  04:41        0.11
  J14                  JUNCTION     0.13     0.15    20.15     0  21:02        0.15
  J17                  JUNCTION     0.06     0.07    20.07     0  05:18        0.07
  J7                   JUNCTION     0.07     0.21    39.21     0  02:40        0.21
  J11                  JUNCTION     0.08     0.30    31.30     0  02:39        0.29
  J18                  JUNCTION     0.05     0.16    29.16     0  03:32        0.16
  Out_to_WWTP          OUTFALL      0.15     0.17     6.17     0  20:35        0.17
  T5                   STORAGE      4.44     5.00    32.00     0  03:39        5.00
  T4                   STORAGE      2.75     4.19    31.19     0  05:20        4.19
  T6                   STORAGE      3.73     5.00    36.00     0  03:21        5.00
  T3                   STORAGE      3.61     4.43    26.43     0  21:01        4.43
  T2                   STORAGE      3.13     4.18    25.18     0  05:16        4.18
  T1                   STORAGE      3.16     5.00    15.00     0  03:34        5.00
  
  
  *******************
  Node Inflow Summary
  *******************
  
  -------------------------------------------------------------------------------------------------
                                  Maximum  Maximum                  Lateral       Total        Flow
                                  Lateral    Total  Time of Max      Inflow      Inflow     Balance
                                   Inflow   Inflow   Occurrence      Volume      Volume       Error
  Node                 Type           CMS      CMS  days hr:min    10^6 ltr    10^6 ltr     Percent
  -------------------------------------------------------------------------------------------------
  J1                   JUNCTION     0.345    0.345     0  19:41         3.1         3.1      -0.054
  J3                   JUNCTION     0.000    0.140     0  05:20           0        9.98       0.312
  CSO7                 JUNCTION     0.073    0.073     0  03:11        1.06        1.06       0.028
  J5                   JUNCTION     0.104    0.149     0  03:16       0.962        2.02      -0.019
  CSO9                 JUNCTION     0.148    0.148     0  02:36         1.4         1.4      -0.036
  J8                   JUNCTION     0.506    0.591     0  03:21        6.61        8.01       0.012
  CSO8                 JUNCTION     0.994    0.994     0  02:31        3.88        3.88      -0.029
  J10                  JUNCTION     0.956    1.418     0  02:31        2.97        6.72      -0.099
  J13                  JUNCTION     0.512    0.512     0  03:11        3.29        3.29      -0.209
  J15                  JUNCTION     0.000    1.009     0  03:27           0        19.1       0.338
  J16                  JUNCTION     0.763    0.763     0  19:41        5.34        5.34      -0.104
  CSO10                JUNCTION     0.233    0.233     0  03:26        1.78        1.78      -0.042
  J12                  JUNCTION     0.000    1.219     0  02:32           0        12.1       0.769
  J4                   JUNCTION     0.000    0.071     0  03:11           0        1.06       0.128
  J6                   JUNCTION     0.000    0.026     0  05:20           0        1.64       0.173
  J2                   JUNCTION     0.000    0.000     0  00:00           0           0       0.000 ltr
  J19                  JUNCTION     0.000    0.271     0  03:35           0        17.5       0.059
  J9                   JUNCTION     0.000    0.075     0  03:21           0        5.15       0.412
  J14                  JUNCTION     0.000    0.116     0  21:01           0        8.35       0.078
  J17                  JUNCTION     0.000    0.030     0  05:16           0        2.07       0.327
  J7                   JUNCTION     0.000    0.124     0  02:38           0         1.4       0.109
  J11                  JUNCTION     0.000    0.486     0  02:39           0        3.75       0.131
  J18                  JUNCTION     0.000    0.202     0  03:32           0        1.78      -0.036
  Out_to_WWTP          OUTFALL      0.000    0.271     0  03:36           0        17.5       0.000
  T5                   STORAGE      0.000    0.314     0  03:26           0        3.11      19.038
  T4                   STORAGE      0.000    0.145     0  03:17           0        2.02       8.838
  T6                   STORAGE      0.000    0.564     0  03:22           0        8.01       8.630
  T3                   STORAGE      0.000    1.081     0  02:34           0          12      11.142
  T2                   STORAGE      0.000    0.446     0  03:12           0         3.3      22.652
  T1                   STORAGE      0.000    0.928     0  03:33           0        19.1       2.724
  
  
  **********************
  Node Surcharge Summary
  **********************
  
  Surcharging occurs when water rises above the top of the highest conduit.
  ---------------------------------------------------------------------
                                               Max. Height   Min. Depth
                                   Hours       Above Crown    Below Rim
  Node                 Type      Surcharged         Meters       Meters
  ---------------------------------------------------------------------
  CSO7                 JUNCTION        0.08          0.877        0.067
  CSO9                 JUNCTION        0.91          1.682        0.000
  CSO8                 JUNCTION        0.57          1.547        0.000
  CSO10                JUNCTION        0.29          0.560        0.000
  
  
  *********************
  Node Flooding Summary
  *********************
  
  Flooding refers to all water that overflows a node, whether it ponds or not.
  --------------------------------------------------------------------------
                                                             Total   Maximum
                                 Maximum   Time of Max       Flood    Ponded
                        Hours       Rate    Occurrence      Volume     Depth
  Node                 Flooded       CMS   days hr:min    10^6 ltr    Meters
  --------------------------------------------------------------------------
  CSO9                    0.06     0.040      0  02:35       0.003     0.000
  CSO8                    0.20     0.509      0  02:31       0.126     0.000
  CSO10                   0.07     0.033      0  03:26       0.004     0.000
  T5                     20.01     0.312      0  19:42       2.109     0.000
  T6                      3.64     0.489      0  03:22       1.773     0.000
  T1                      1.15     0.634      0  03:34       0.612     0.000
  
  
  **********************
  Storage Volume Summary
  **********************
  
  --------------------------------------------------------------------------------------------------
                         Average     Avg  Evap Exfil       Maximum     Max    Time of Max    Maximum
                          Volume    Pcnt  Pcnt  Pcnt        Volume    Pcnt     Occurrence    Outflow
  Storage Unit           1000 m3    Full  Loss  Loss       1000 m3    Full    days hr:min        CMS
  --------------------------------------------------------------------------------------------------
  T5                       0.444      89     0     0         0.500     100       0  03:39      0.000
  T4                       0.275      55     0     0         0.419      84       0  05:20      0.026
  T6                       0.448      75     0     0         0.600     100       0  03:21      0.075
  T3                       1.877      72     0     0         2.304      89       0  21:01      0.209
  T2                       0.627      63     0     0         0.836      84       0  05:16      0.030
  T1                       0.442      63     0     0         0.700     100       0  03:34      0.271
  
  
  ***********************
  Outfall Loading Summary
  ***********************
  
  -----------------------------------------------------------
                         Flow       Avg       Max       Total
                         Freq      Flow      Flow      Volume
  Outfall Node           Pcnt       CMS       CMS    10^6 ltr
  -----------------------------------------------------------
  Out_to_WWTP           99.63     0.207     0.271      17.527
  -----------------------------------------------------------
  System                99.63     0.207     0.271      17.527
  
  
  ********************
  Link Flow Summary
  ********************
  
  -----------------------------------------------------------------------------
                                 Maximum  Time of Max   Maximum    Max/    Max/
                                  |Flow|   Occurrence   |Veloc|    Full    Full
  Link                 Type          CMS  days hr:min     m/sec    Flow   Depth
  -----------------------------------------------------------------------------
  C1                   CONDUIT     0.000     0  00:00      0.00    0.00    0.06
  C6                   CONDUIT     0.059     0  03:20      1.26    0.93    0.64
  C2                   CONDUIT     0.026     0  05:22      0.94    0.03    0.16
  C9                   CONDUIT     0.109     0  02:40      1.28    0.37    0.45
  C16                  CONDUIT     0.485     0  02:36      1.78    0.05    0.16
  C3                   CONDUIT     0.116     0  21:02      1.89    0.04    0.13
  C19                  CONDUIT     0.030     0  05:18      0.62    0.01    0.20
  C11                  CONDUIT     0.140     0  05:31      1.56    0.01    0.11
  C20                  CONDUIT     0.688     0  19:42      3.33    0.02    0.13
  C22                  CONDUIT     0.198     0  03:32      1.54    0.09    0.30
  C12                  CONDUIT     0.075     0  04:40      1.07    0.01    0.13
  C17                  CONDUIT     1.219     0  02:32      3.60    0.06    0.17
  C10                  CONDUIT     0.564     0  03:22      1.26    0.06    0.58
  C13                  CONDUIT     1.081     0  02:34      1.57    0.06    0.61
  C18                  CONDUIT     0.446     0  03:12      2.25    0.02    0.54
  C23                  CONDUIT     0.928     0  03:33      1.84    0.10    0.61
  C4                   CONDUIT     0.314     0  03:26      1.59    0.08    0.59
  C7                   CONDUIT     0.145     0  03:17      1.46    0.04    0.56
  C14                  CONDUIT     0.271     0  03:36      2.08    0.02    0.09
  C5                   CONDUIT     0.071     0  03:11      1.53    1.21    1.00
  C8                   CONDUIT     0.124     0  02:38      2.01    1.57    0.83
  C15                  CONDUIT     0.486     0  02:39      3.52    1.55    0.83
  C21                  CONDUIT     0.202     0  03:32      1.87    1.16    0.68
  V4                   ORIFICE     0.026     0  05:20                      0.35
  V5                   ORIFICE     0.000     0  00:00                      0.00
  V1                   ORIFICE     0.271     0  03:35                      1.00
  V6                   ORIFICE     0.075     0  03:21                      0.43
  V3                   ORIFICE     0.116     0  21:01                      0.65
  V2                   ORIFICE     0.030     0  05:16                      0.24
  
  
  ***************************
  Flow Classification Summary
  ***************************
  
  -------------------------------------------------------------------------------------
                      Adjusted    ---------- Fraction of Time in Flow Class ---------- 
                       /Actual         Up    Down  Sub   Sup   Up    Down  Norm  Inlet 
  Conduit               Length    Dry  Dry   Dry   Crit  Crit  Crit  Crit  Ltd   Ctrl  
  -------------------------------------------------------------------------------------
  C1                      1.00   0.11  0.89  0.00  0.00  0.00  0.00  0.00  0.00  0.00
  C6                      1.00   0.00  0.00  0.00  0.02  0.98  0.00  0.00  0.00  0.00
  C2                      1.00   0.11  0.00  0.00  0.32  0.57  0.00  0.00  0.88  0.00
  C9                      1.00   0.00  0.00  0.00  0.99  0.01  0.00  0.00  1.00  0.00
  C16                     1.00   0.00  0.00  0.00  0.62  0.38  0.00  0.00  0.40  0.00
  C3                      1.00   0.11  0.00  0.00  0.00  0.89  0.00  0.00  0.00  0.00
  C19                     1.00   0.00  0.11  0.00  0.89  0.00  0.00  0.00  0.89  0.00
  C11                     1.00   0.00  0.11  0.00  0.07  0.82  0.00  0.00  0.89  0.00
  C20                     1.00   0.00  0.00  0.00  0.75  0.25  0.00  0.00  0.99  0.00
  C22                     1.00   0.00  0.00  0.00  0.84  0.16  0.00  0.00  1.00  0.00
  C12                     1.00   0.00  0.11  0.00  0.50  0.39  0.00  0.00  0.89  0.00
  C17                     1.00   0.00  0.00  0.00  0.63  0.37  0.00  0.00  0.96  0.00
  C10                     1.00   0.00  0.00  0.00  0.98  0.02  0.00  0.00  0.99  0.00
  C13                     1.00   0.00  0.00  0.00  0.96  0.04  0.00  0.00  0.56  0.00
  C18                     1.00   0.00  0.00  0.00  0.99  0.01  0.00  0.00  0.99  0.00
  C23                     1.00   0.00  0.00  0.00  0.97  0.03  0.00  0.00  0.98  0.00
  C4                      1.00   0.00  0.00  0.00  0.98  0.02  0.00  0.00  0.99  0.00
  C7                      1.00   0.00  0.00  0.00  0.98  0.02  0.00  0.00  0.99  0.00
  C14                     1.00   0.00  0.00  0.00  0.00  1.00  0.00  0.00  0.64  0.00
  C5                      1.00   0.00  0.00  0.00  0.94  0.06  0.00  0.00  0.97  0.00
  C8                      1.00   0.00  0.00  0.00  0.16  0.84  0.00  0.00  0.00  0.00
  C15                     1.00   0.00  0.00  0.00  0.00  1.00  0.00  0.00  0.00  0.00
  C21                     1.00   0.00  0.00  0.00  0.01  0.99  0.00  0.00  0.00  0.00
  
  
  *************************
  Conduit Surcharge Summary
  *************************
  
  ----------------------------------------------------------------------------
                                                           Hours        Hours 
                         --------- Hours Full --------   Above Full   Capacity
  Conduit                Both Ends  Upstream  Dnstream   Normal Flow   Limited
  ----------------------------------------------------------------------------
  C10                         0.01      0.01     21.09      0.01         0.01
  C13                         0.01      0.01     20.94      0.01         0.01
  C18                         0.01      0.01     20.93      0.01         0.01
  C23                         0.01      0.01     20.94      0.01         0.01
  C4                          0.01      0.01     21.42      0.01         0.01
  C7                          0.01      0.01     21.30      0.01         0.01
  C5                          0.01      0.08      0.02      0.14         0.01
  C8                          0.01      0.91      0.01      0.93         0.01
  C15                         0.01      0.57      0.01      0.65         0.01
  C21                         0.01      0.29      0.01      0.22         0.01
  

  Analysis begun on:  Tue Sep 21 10:02:48 2021
  Analysis ended on:  Tue Sep 21 10:02:49 2021
  Total elapsed time: 00:00:01