
  EPA STORM WATER MANAGEMENT MODEL - VERSION 5.1 (Build 5.3.0.dev0)
  --------------------------------------------------------------

  WARNING 09: time series interval greater than recording interval for Rain Gage RG1
  WARNING 09: time series interval greater than recording interval for Rain Gage RG2
  WARNING 09: time series interval greater than recording interval for Rain Gage RG3
  WARNING 09: time series interval greater than recording interval for Rain Gage RG4
  
  *********************************************************
  NOTE: The summary statistics displayed in this report are
  based on results found at every computational time step,  
  not just on results from each reporting time step.
  *********************************************************
  
  ****************
  Analysis Options
  ****************
  Flow Units ............... CMS
  Process Models:
    Rainfall/Runoff ........ YES
    RDII ................... NO
    Snowmelt ............... NO
    Groundwater ............ NO
    Flow Routing ........... YES
    Ponding Allowed ........ YES
    Water Quality .......... NO
  Infiltration Method ...... HORTON
  Flow Routing Method ...... DYNWAVE
  Surcharge Method ......... EXTRAN
  Starting Date ............ 08/28/2015 00:00:00
  Ending Date .............. 08/28/2015 23:40:00
  Antecedent Dry Days ...... 0.0
  Report Time Step ......... 00:01:00
  Wet Time Step ............ 00:01:00
  Dry Time Step ............ 00:01:00
  Routing Time Step ........ 5.00 sec
  Variable Time Step ....... YES
  Maximum Trials ........... 8
  Number of Threads ........ 1
  Head Tolerance ........... 0.001500 m
  
  
  **************************        Volume         Depth
  Runoff Quantity Continuity     hectare-m            mm
  **************************     ---------       -------
  Total Precipitation ......         2.404        13.340
  Evaporation Loss .........         0.000         0.000
  Infiltration Loss ........         0.000         0.000
  Surface Runoff ...........         2.278        12.641
  Final Storage ............         0.128         0.710
  Continuity Error (%) .....        -0.083
  
  
  **************************        Volume        Volume
  Flow Routing Continuity        hectare-m      10^6 ltr
  **************************     ---------     ---------
  Dry Weather Inflow .......         0.758         7.576
  Wet Weather Inflow .......         2.277        22.766
  Groundwater Inflow .......         0.000         0.000
  RDII Inflow ..............         0.000         0.000
  External Inflow ..........         0.000         0.000
  External Outflow .........         0.943         9.432
  Flooding Loss ............         0.907         9.067
  Evaporation Loss .........         0.000         0.000
  Exfiltration Loss ........         0.000         0.000
  Initial Stored Volume ....         0.000         0.000
  Final Stored Volume ......         0.876         8.756
  Continuity Error (%) .....        10.174
  
  
  *************************
  Highest Continuity Errors
  *************************
  Node T2 (27.06%)
  Node T5 (18.71%)
  Node T4 (17.46%)
  Node T3 (13.87%)
  Node T6 (11.20%)
  
  
  ***************************
  Time-Step Critical Elements
  ***************************
  None
  
  
  ********************************
  Highest Flow Instability Indexes
  ********************************
  Link C15 (2)
  
  
  *************************
  Routing Time Step Summary
  *************************
  Minimum Time Step           :     4.50 sec
  Average Time Step           :     5.00 sec
  Maximum Time Step           :     5.00 sec
  Percent in Steady State     :     0.00
  Average Iterations per Step :     2.00
  Percent Not Converging      :     0.00
  
  
  ***************************
  Subcatchment Runoff Summary
  ***************************
  
  ------------------------------------------------------------------------------------------------------------------------------
                            Total      Total      Total      Total     Imperv       Perv      Total       Total     Peak  Runoff
                           Precip      Runon       Evap      Infil     Runoff     Runoff     Runoff      Runoff   Runoff   Coeff
  Subcatchment                 mm         mm         mm         mm         mm         mm         mm    10^6 ltr      CMS
  ------------------------------------------------------------------------------------------------------------------------------
  SC01                      10.60       0.00       0.00       0.00      10.10       0.00      10.10        3.33     0.25   0.952
  SC02                      11.96       0.00       0.00       0.00      11.39       0.00      11.39        2.59     0.14   0.952
  SC03                      16.80       0.00       0.00       0.00      16.40       0.00      16.40        2.95     0.16   0.976
  SC04                      11.96       0.00       0.00       0.00      11.00       0.00      11.00        0.76     0.03   0.920
  SC05                      10.60       0.00       0.00       0.00      10.06       0.00      10.06        1.57     0.11   0.949
  SC06                      14.70       0.00       0.00       0.00      13.57       0.00      13.57        4.42     0.22   0.923
  SC07                      11.96       0.00       0.00       0.00      11.01       0.00      11.01        0.52     0.02   0.920
  SC08                      16.80       0.00       0.00       0.00      16.11       0.00      16.11        4.51     0.20   0.959
  SC09                      14.70       0.00       0.00       0.00      13.86       0.00      13.86        0.96     0.06   0.943
  SC010                     10.60       0.00       0.00       0.00       9.96       0.00       9.96        1.17     0.08   0.940
  
  
  ******************
  Node Depth Summary
  ******************
  
  ---------------------------------------------------------------------------------
                                 Average  Maximum  Maximum  Time of Max    Reported
                                   Depth    Depth      HGL   Occurrence   Max Depth
  Node                 Type       Meters   Meters   Meters  days hr:min      Meters
  ---------------------------------------------------------------------------------
  J1                   JUNCTION     0.06     0.12    34.12     0  14:17        0.12
  J3                   JUNCTION     0.04     0.12    18.12     0  19:25        0.12
  CSO7                 JUNCTION     0.08     0.14    34.14     0  14:11        0.14
  J5                   JUNCTION     0.05     0.09    32.09     0  14:13        0.09
  CSO9                 JUNCTION     0.09     0.22    40.22     0  10:22        0.22
  J8                   JUNCTION     0.10     0.18    36.18     0  10:27        0.18
  CSO8                 JUNCTION     0.12     0.28    32.28     0  14:56        0.28
  J10                  JUNCTION     0.09     0.18    29.18     0  15:02        0.18
  J13                  JUNCTION     0.05     0.10    29.10     0  14:12        0.10
  J15                  JUNCTION     0.11     0.19    15.19     0  14:19        0.19
  J16                  JUNCTION     0.05     0.13    30.13     0  14:12        0.13
  CSO10                JUNCTION     0.09     0.23    30.23     0  14:16        0.23
  J12                  JUNCTION     0.45     1.02    27.02     0  15:10        1.02
  J4                   JUNCTION     0.09     0.16    33.16     0  14:14        0.16
  J6                   JUNCTION     0.02     0.07    25.07     0  16:43        0.07
  J2                   JUNCTION     0.00     0.00    25.00     0  00:00        0.00
  J19                  JUNCTION     0.10     0.17     8.17     0  23:40        0.17
  J9                   JUNCTION     0.04     0.11    29.11     0  17:52        0.11
  J14                  JUNCTION     0.05     0.16    20.16     0  15:51        0.16
  J17                  JUNCTION     0.03     0.08    20.08     0  16:52        0.08
  J7                   JUNCTION     0.07     0.15    39.15     0  10:28        0.15
  J11                  JUNCTION     0.10     0.19    31.19     0  15:03        0.19
  J18                  JUNCTION     0.04     0.10    29.10     0  14:18        0.10
  Out_to_WWTP          OUTFALL      0.09     0.17     6.17     0  23:40        0.17
  T5                   STORAGE      3.00     5.00    32.00     0  13:08        5.00
  T4                   STORAGE      2.82     5.00    32.00     0  13:51        5.00
  T6                   STORAGE      3.65     5.00    36.00     0  10:10        5.00
  T3                   STORAGE      2.85     5.00    27.00     0  15:08        5.00
  T2                   STORAGE      2.55     5.00    26.00     0  15:23        5.00
  T1                   STORAGE      1.48     4.91    14.91     0  23:40        4.91
  
  
  *******************
  Node Inflow Summary
  *******************
  
  -------------------------------------------------------------------------------------------------
                                  Maximum  Maximum                  Lateral       Total        Flow
                                  Lateral    Total  Time of Max      Inflow      Inflow     Balance
                                   Inflow   Inflow   Occurrence      Volume      Volume       Error
  Node                 Type           CMS      CMS  days hr:min    10^6 ltr    10^6 ltr     Percent
  -------------------------------------------------------------------------------------------------
  J1                   JUNCTION     0.132    0.132     0  14:11        2.66        2.66       0.164
  J3                   JUNCTION     0.000    0.152     0  15:53           0        4.31       0.770
  CSO7                 JUNCTION     0.033    0.033     0  14:11        1.09        1.09       0.061
  J5                   JUNCTION     0.038    0.068     0  14:11        1.01        2.09       0.246
  CSO9                 JUNCTION     0.065    0.065     0  10:21        1.34        1.34       0.084
  J8                   JUNCTION     0.250    0.307     0  10:26        6.25        7.57       0.260
  CSO8                 JUNCTION     0.208    0.208     0  14:56        4.96        4.96       0.040
  J10                  JUNCTION     0.173    0.343     0  15:01         3.7        8.63       0.226
  J13                  JUNCTION     0.152    0.152     0  14:11         3.5         3.5       0.189
  J15                  JUNCTION     0.000    0.322     0  14:17           0          11       0.895
  J16                  JUNCTION     0.270    0.270     0  14:11        4.41        4.41       0.140
  CSO10                JUNCTION     0.082    0.082     0  14:16        1.44        1.44       0.111
  J12                  JUNCTION     0.000    0.329     0  15:02           0        10.7       8.189
  J4                   JUNCTION     0.000    0.032     0  14:11           0        1.09       0.435
  J6                   JUNCTION     0.000    0.028     0  15:50           0       0.799       0.478
  J2                   JUNCTION     0.000    0.000     0  00:00           0           0       0.000 ltr
  J19                  JUNCTION     0.000    0.268     0  23:40           0        9.44       0.133
  J9                   JUNCTION     0.000    0.075     0  15:50           0        2.15       1.522
  J14                  JUNCTION     0.000    0.124     0  15:50           0        3.52       0.191
  J17                  JUNCTION     0.000    0.033     0  15:50           0       0.946       0.718
  J7                   JUNCTION     0.000    0.062     0  10:22           0        1.34       0.529
  J11                  JUNCTION     0.000    0.207     0  14:56           0        4.95       0.421
  J18                  JUNCTION     0.000    0.079     0  14:16           0        1.44       0.378
  Out_to_WWTP          OUTFALL      0.000    0.268     0  23:40           0        9.43       0.000
  T5                   STORAGE      0.000    0.123     0  14:17           0        2.66      23.022
  T4                   STORAGE      0.000    0.066     0  14:13           0        2.08      21.159
  T6                   STORAGE      0.000    0.297     0  10:27           0        7.56      12.617
  T3                   STORAGE      0.000    0.435     0  15:13           0        9.92      16.102
  T2                   STORAGE      0.000    0.142     0  14:12           0        3.49      37.103
  T1                   STORAGE      0.000    0.299     0  14:19           0          11       8.087
  
  
  **********************
  Node Surcharge Summary
  **********************
  
  No nodes were surcharged.
  
  
  *********************
  Node Flooding Summary
  *********************
  
  Flooding refers to all water that overflows a node, whether it ponds or not.
  --------------------------------------------------------------------------
                                                             Total   Maximum
                                 Maximum   Time of Max       Flood    Ponded
                        Hours       Rate    Occurrence      Volume     Depth
  Node                 Flooded       CMS   days hr:min    10^6 ltr    Meters
  --------------------------------------------------------------------------
  T5                     10.52     0.123      0  14:17       1.660     0.000
  T4                      5.07     0.066      0  14:13       0.423     0.000
  T6                     12.61     0.297      0  10:27       3.960     0.000
  T3                      8.31     0.434      0  15:13       2.423     0.000
  T2                      8.10     0.089      0  15:23       0.601     0.000
  
  
  **********************
  Storage Volume Summary
  **********************
  
  --------------------------------------------------------------------------------------------------
                         Average     Avg  Evap Exfil       Maximum     Max    Time of Max    Maximum
                          Volume    Pcnt  Pcnt  Pcnt        Volume    Pcnt     Occurrence    Outflow
  Storage Unit           1000 m3    Full  Loss  Loss       1000 m3    Full    days hr:min        CMS
  --------------------------------------------------------------------------------------------------
  T5                       0.300      60     0     0         0.500     100       0  13:08      0.000
  T4                       0.282      56     0     0         0.500     100       0  13:51      0.028
  T6                       0.438      73     0     0         0.600     100       0  10:10      0.075
  T3                       1.483      57     0     0         2.600     100       0  15:08      0.124
  T2                       0.509      51     0     0         1.000     100       0  15:23      0.033
  T1                       0.207      30     0     0         0.687      98       0  23:40      0.268
  
  
  ***********************
  Outfall Loading Summary
  ***********************
  
  -----------------------------------------------------------
                         Flow       Avg       Max       Total
                         Freq      Flow      Flow      Volume
  Outfall Node           Pcnt       CMS       CMS    10^6 ltr
  -----------------------------------------------------------
  Out_to_WWTP           99.43     0.111     0.268       9.432
  -----------------------------------------------------------
  System                99.43     0.111     0.268       9.432
  
  
  ********************
  Link Flow Summary
  ********************
  
  -----------------------------------------------------------------------------
                                 Maximum  Time of Max   Maximum    Max/    Max/
                                  |Flow|   Occurrence   |Veloc|    Full    Full
  Link                 Type          CMS  days hr:min     m/sec    Flow   Depth
  -----------------------------------------------------------------------------
  C1                   CONDUIT     0.000     0  00:00      0.00    0.00    0.06
  C6                   CONDUIT     0.031     0  14:14      1.11    0.49    0.41
  C2                   CONDUIT     0.028     0  16:43      1.05    0.03    0.16
  C9                   CONDUIT     0.059     0  10:28      1.04    0.20    0.33
  C16                  CONDUIT     0.191     0  15:03      1.33    0.02    0.09
  C3                   CONDUIT     0.125     0  15:52      2.06    0.05    0.14
  C19                  CONDUIT     0.033     0  16:52      0.62    0.01    0.13
  C11                  CONDUIT     0.152     0  19:25      1.49    0.01    0.08
  C20                  CONDUIT     0.249     0  14:12      2.36    0.01    0.08
  C22                  CONDUIT     0.076     0  14:18      1.25    0.03    0.18
  C12                  CONDUIT     0.075     0  17:52      0.11    0.01    0.28
  C17                  CONDUIT     0.329     0  15:02      2.22    0.02    0.30
  C10                  CONDUIT     0.297     0  10:27      0.93    0.03    0.56
  C13                  CONDUIT     0.435     0  15:13      0.84    0.03    0.75
  C18                  CONDUIT     0.142     0  14:12      1.01    0.01    0.53
  C23                  CONDUIT     0.299     0  14:19      1.13    0.03    0.56
  C4                   CONDUIT     0.123     0  14:17      1.12    0.03    0.56
  C7                   CONDUIT     0.066     0  14:13      0.80    0.02    0.54
  C14                  CONDUIT     0.268     0  23:40      2.07    0.01    0.09
  C5                   CONDUIT     0.032     0  14:11      1.06    0.55    0.57
  C8                   CONDUIT     0.062     0  10:22      1.30    0.78    0.58
  C15                  CONDUIT     0.207     0  14:56      2.51    0.66    0.52
  C21                  CONDUIT     0.079     0  14:16      1.55    0.45    0.37
  V4                   ORIFICE     0.028     0  15:50                      0.35
  V5                   ORIFICE     0.000     0  00:00                      0.00
  V1                   ORIFICE     0.268     0  23:40                      1.00
  V6                   ORIFICE     0.075     0  15:50                      0.43
  V3                   ORIFICE     0.124     0  15:50                      0.65
  V2                   ORIFICE     0.033     0  15:50                      0.24
  
  
  ***************************
  Flow Classification Summary
  ***************************
  
  -------------------------------------------------------------------------------------
                      Adjusted    ---------- Fraction of Time in Flow Class ---------- 
                       /Actual         Up    Down  Sub   Sup   Up    Down  Norm  Inlet 
  Conduit               Length    Dry  Dry   Dry   Crit  Crit  Crit  Crit  Ltd   Ctrl  
  -------------------------------------------------------------------------------------
  C1                      1.00   0.66  0.34  0.00  0.00  0.00  0.00  0.00  0.00  0.00
  C6                      1.00   0.00  0.00  0.00  0.01  0.99  0.00  0.00  0.00  0.00
  C2                      1.00   0.66  0.00  0.00  0.00  0.34  0.00  0.00  0.33  0.00
  C9                      1.00   0.00  0.00  0.00  1.00  0.00  0.00  0.00  1.00  0.00
  C16                     1.00   0.00  0.06  0.00  0.16  0.78  0.00  0.00  0.11  0.00
  C3                      1.00   0.66  0.00  0.00  0.00  0.34  0.00  0.00  0.00  0.00
  C19                     1.00   0.00  0.66  0.00  0.34  0.00  0.00  0.00  0.34  0.00
  C11                     1.00   0.00  0.66  0.00  0.01  0.33  0.00  0.00  0.34  0.00
  C20                     1.00   0.00  0.00  0.00  0.29  0.71  0.00  0.00  0.99  0.00
  C22                     1.00   0.00  0.00  0.00  0.62  0.38  0.00  0.00  1.00  0.00
  C12                     1.00   0.00  0.66  0.00  0.34  0.00  0.00  0.00  0.34  0.00
  C17                     1.00   0.00  0.00  0.00  0.43  0.57  0.00  0.00  0.91  0.00
  C10                     1.00   0.00  0.00  0.00  0.98  0.02  0.00  0.00  0.98  0.00
  C13                     1.00   0.00  0.00  0.00  0.91  0.09  0.00  0.00  0.48  0.00
  C18                     1.00   0.00  0.00  0.00  0.97  0.03  0.00  0.00  0.98  0.00
  C23                     1.00   0.00  0.00  0.00  0.69  0.31  0.00  0.00  0.92  0.00
  C4                      1.00   0.00  0.00  0.00  0.98  0.02  0.00  0.00  0.99  0.00
  C7                      1.00   0.00  0.00  0.00  0.97  0.03  0.00  0.00  0.98  0.00
  C14                     1.00   0.00  0.00  0.00  0.00  1.00  0.00  0.00  0.34  0.00
  C5                      1.00   0.00  0.00  0.00  0.91  0.09  0.00  0.00  0.99  0.00
  C8                      1.00   0.00  0.00  0.00  0.04  0.96  0.00  0.00  0.00  0.00
  C15                     1.00   0.06  0.00  0.00  0.00  0.94  0.00  0.00  0.00  0.00
  C21                     1.00   0.00  0.00  0.00  0.00  1.00  0.00  0.00  0.00  0.00
  
  
  *************************
  Conduit Surcharge Summary
  *************************
  
  ----------------------------------------------------------------------------
                                                           Hours        Hours 
                         --------- Hours Full --------   Above Full   Capacity
  Conduit                Both Ends  Upstream  Dnstream   Normal Flow   Limited
  ----------------------------------------------------------------------------
  C10                         0.01      0.01     19.02      0.01         0.01
  C13                         0.01      0.01     13.17      0.01         0.01
  C18                         0.01      0.01     12.15      0.01         0.01
  C23                         0.01      0.01      9.13      0.01         0.01
  C4                          0.01      0.01     16.33      0.01         0.01
  C7                          0.01      0.01     15.68      0.01         0.01
  

  Analysis begun on:  Tue Sep 21 10:03:43 2021
  Analysis ended on:  Tue Sep 21 10:03:44 2021
  Total elapsed time: 00:00:01