
  EPA STORM WATER MANAGEMENT MODEL - VERSION 5.1 (Build 5.3.0.dev0)
  --------------------------------------------------------------

  WARNING 09: time series interval greater than recording interval for Rain Gage RG1
  WARNING 09: time series interval greater than recording interval for Rain Gage RG2
  WARNING 09: time series interval greater than recording interval for Rain Gage RG3
  WARNING 09: time series interval greater than recording interval for Rain Gage RG4
  
  *********************************************************
  NOTE: The summary statistics displayed in this report are
  based on results found at every computational time step,  
  not just on results from each reporting time step.
  *********************************************************
  
  ****************
  Analysis Options
  ****************
  Flow Units ............... CMS
  Process Models:
    Rainfall/Runoff ........ YES
    RDII ................... NO
    Snowmelt ............... NO
    Groundwater ............ NO
    Flow Routing ........... YES
    Ponding Allowed ........ YES
    Water Quality .......... NO
  Infiltration Method ...... HORTON
  Flow Routing Method ...... DYNWAVE
  Surcharge Method ......... EXTRAN
  Starting Date ............ 08/28/2015 00:00:00
  Ending Date .............. 08/28/2015 23:40:00
  Antecedent Dry Days ...... 0.0
  Report Time Step ......... 00:01:00
  Wet Time Step ............ 00:01:00
  Dry Time Step ............ 00:01:00
  Routing Time Step ........ 5.00 sec
  Variable Time Step ....... YES
  Maximum Trials ........... 8
  Number of Threads ........ 1
  Head Tolerance ........... 0.001500 m
  
  
  **************************        Volume         Depth
  Runoff Quantity Continuity     hectare-m            mm
  **************************     ---------       -------
  Total Precipitation ......         3.834        21.279
  Evaporation Loss .........         0.000         0.000
  Infiltration Loss ........         0.000         0.000
  Surface Runoff ...........         3.834        21.275
  Final Storage ............         0.011         0.063
  Continuity Error (%) .....        -0.278
  
  
  **************************        Volume        Volume
  Flow Routing Continuity        hectare-m      10^6 ltr
  **************************     ---------     ---------
  Dry Weather Inflow .......         0.758         7.576
  Wet Weather Inflow .......         3.834        38.338
  Groundwater Inflow .......         0.000         0.000
  RDII Inflow ..............         0.000         0.000
  External Inflow ..........         0.000         0.000
  External Outflow .........         1.791        17.908
  Flooding Loss ............         2.265        22.648
  Evaporation Loss .........         0.000         0.000
  Exfiltration Loss ........         0.000         0.000
  Initial Stored Volume ....         0.000         0.000
  Final Stored Volume ......         0.469         4.687
  Continuity Error (%) .....         1.460
  
  
  *************************
  Highest Continuity Errors
  *************************
  Node T2 (10.06%)
  Node T5 (7.45%)
  Node T3 (6.90%)
  Node T4 (3.88%)
  Node T6 (1.77%)
  
  
  ***************************
  Time-Step Critical Elements
  ***************************
  None
  
  
  ********************************
  Highest Flow Instability Indexes
  ********************************
  All links are stable.
  
  
  *************************
  Routing Time Step Summary
  *************************
  Minimum Time Step           :     4.50 sec
  Average Time Step           :     5.00 sec
  Maximum Time Step           :     5.00 sec
  Percent in Steady State     :     0.00
  Average Iterations per Step :     2.36
  Percent Not Converging      :     1.85
  
  
  ***************************
  Subcatchment Runoff Summary
  ***************************
  
  ------------------------------------------------------------------------------------------------------------------------------
                            Total      Total      Total      Total     Imperv       Perv      Total       Total     Peak  Runoff
                           Precip      Runon       Evap      Infil     Runoff     Runoff     Runoff      Runoff   Runoff   Coeff
  Subcatchment                 mm         mm         mm         mm         mm         mm         mm    10^6 ltr      CMS
  ------------------------------------------------------------------------------------------------------------------------------
  SC01                      34.55       0.00       0.00       0.00      34.65       0.00      34.65       11.43     4.70   1.003
  SC02                      18.15       0.00       0.00       0.00      18.14       0.00      18.14        4.13     1.35   1.000
  SC03                      13.89       0.00       0.00       0.00      13.87       0.00      13.87        2.50     0.45   0.998
  SC04                      18.15       0.00       0.00       0.00      18.10       0.00      18.10        1.25     0.23   0.997
  SC05                      34.55       0.00       0.00       0.00      34.63       0.00      34.63        5.40     2.13   1.002
  SC06                      12.32       0.00       0.00       0.00      12.24       0.00      12.24        3.99     0.56   0.994
  SC07                      18.15       0.00       0.00       0.00      18.10       0.00      18.10        0.86     0.16   0.997
  SC08                      13.89       0.00       0.00       0.00      13.84       0.00      13.84        3.88     0.57   0.996
  SC09                      12.32       0.00       0.00       0.00      12.26       0.00      12.26        0.85     0.14   0.995
  SC010                     34.55       0.00       0.00       0.00      34.59       0.00      34.59        4.06     1.45   1.001
  
  
  ******************
  Node Depth Summary
  ******************
  
  ---------------------------------------------------------------------------------
                                 Average  Maximum  Maximum  Time of Max    Reported
                                   Depth    Depth      HGL   Occurrence   Max Depth
  Node                 Type       Meters   Meters   Meters  days hr:min      Meters
  ---------------------------------------------------------------------------------
  J1                   JUNCTION     0.07     0.58    34.58     0  01:06        0.58
  J3                   JUNCTION     0.11     0.12    18.12     0  04:24        0.12
  CSO7                 JUNCTION     0.14     1.20    35.20     0  00:56        1.20
  J5                   JUNCTION     0.05     0.18    32.18     0  01:02        0.18
  CSO9                 JUNCTION     0.12     2.00    42.00     0  02:55        2.00
  J8                   JUNCTION     0.08     0.26    36.26     0  03:07        0.26
  CSO8                 JUNCTION     0.14     2.00    34.00     0  02:11        2.00
  J10                  JUNCTION     0.07     0.28    29.28     0  02:52        0.27
  J13                  JUNCTION     0.05     0.31    29.31     0  00:56        0.29
  J15                  JUNCTION     0.18     0.74    15.74     0  01:13        0.74
  J16                  JUNCTION     0.06     0.51    30.51     0  01:06        0.48
  CSO10                JUNCTION     0.14     1.00    31.00     0  00:45        1.00
  J12                  JUNCTION     0.50     1.02    27.02     0  04:01        1.02
  J4                   JUNCTION     0.13     1.37    34.37     0  01:02        0.87
  J6                   JUNCTION     0.06     0.07    25.07     0  04:04        0.07
  J2                   JUNCTION     0.00     0.00    25.00     0  00:00        0.00
  J19                  JUNCTION     0.15     0.17     8.17     0  00:59        0.17
  J9                   JUNCTION     0.09     0.11    29.11     0  05:04        0.11
  J14                  JUNCTION     0.14     0.15    20.15     0  03:56        0.15
  J17                  JUNCTION     0.07     0.08    20.08     0  03:28        0.08
  J7                   JUNCTION     0.06     0.23    39.23     0  03:07        0.23
  J11                  JUNCTION     0.07     0.29    31.29     0  02:53        0.29
  J18                  JUNCTION     0.05     0.16    29.16     0  01:26        0.16
  Out_to_WWTP          OUTFALL      0.15     0.17     6.17     0  05:13        0.17
  T5                   STORAGE      4.82     5.00    32.00     0  01:00        5.00
  T4                   STORAGE      3.32     5.00    32.00     0  02:45        5.00
  T6                   STORAGE      2.82     5.00    36.00     0  03:17        5.00
  T3                   STORAGE      3.98     5.00    27.00     0  03:55        5.00
  T2                   STORAGE      3.82     5.00    26.00     0  02:29        5.00
  T1                   STORAGE      3.22     5.00    15.00     0  00:58        5.00
  
  
  *******************
  Node Inflow Summary
  *******************
  
  -------------------------------------------------------------------------------------------------
                                  Maximum  Maximum                  Lateral       Total        Flow
                                  Lateral    Total  Time of Max      Inflow      Inflow     Balance
                                   Inflow   Inflow   Occurrence      Volume      Volume       Error
  Node                 Type           CMS      CMS  days hr:min    10^6 ltr    10^6 ltr     Percent
  -------------------------------------------------------------------------------------------------
  J1                   JUNCTION     2.133    2.133     0  01:06         6.5         6.5      -0.059
  J3                   JUNCTION     0.000    0.152     0  03:58           0          11       0.264
  CSO7                 JUNCTION     0.162    0.162     0  01:01        1.42        1.42       0.019
  J5                   JUNCTION     0.233    0.293     0  01:01         1.5        2.84      -0.093
  CSO9                 JUNCTION     0.145    0.145     0  03:01        1.23        1.23      -0.021
  J8                   JUNCTION     0.564    0.683     0  03:06        5.82        7.04      -0.036
  CSO8                 JUNCTION     0.573    0.573     0  02:46        4.32        4.32      -0.026
  J10                  JUNCTION     0.456    0.872     0  02:51        3.25        7.56      -0.126
  J13                  JUNCTION     1.355    1.355     0  01:01        5.04        5.04      -0.325
  J15                  JUNCTION     0.000    4.756     0  01:06           0        28.4       0.191
  J16                  JUNCTION     4.699    4.699     0  01:06        12.5        12.5      -0.108
  CSO10                JUNCTION     1.447    1.447     0  01:06        4.33        4.33      -0.039
  J12                  JUNCTION     0.000    0.867     0  02:52           0        12.1       0.040
  J4                   JUNCTION     0.000    0.085     0  01:00           0        1.35       0.019
  J6                   JUNCTION     0.000    0.028     0  02:45           0        1.88       0.135
  J2                   JUNCTION     0.000    0.000     0  00:00           0           0       0.000 ltr
  J19                  JUNCTION     0.000    0.271     0  00:58           0        17.9       0.046
  J9                   JUNCTION     0.000    0.075     0  03:17           0        4.53       0.257
  J14                  JUNCTION     0.000    0.124     0  03:55           0        9.09       0.063
  J17                  JUNCTION     0.000    0.033     0  02:29           0        2.41       0.335
  J7                   JUNCTION     0.000    0.126     0  03:07           0        1.23       0.068
  J11                  JUNCTION     0.000    0.486     0  02:52           0        4.31       0.039
  J18                  JUNCTION     0.000    0.202     0  01:27           0        2.56      -0.057
  Out_to_WWTP          OUTFALL      0.000    0.271     0  00:59           0        17.9       0.000
  T5                   STORAGE      0.000    1.873     0  01:07           0         6.5       8.053
  T4                   STORAGE      0.000    0.278     0  01:02           0        2.84       4.038
  T6                   STORAGE      0.000    0.654     0  03:07           0        7.04       1.803
  T3                   STORAGE      0.000    0.845     0  02:53           0        12.1       7.416
  T2                   STORAGE      0.000    1.309     0  00:56           0        5.05      11.190
  T1                   STORAGE      0.000    3.200     0  01:13           0        28.4       0.991
  
  
  **********************
  Node Surcharge Summary
  **********************
  
  Surcharging occurs when water rises above the top of the highest conduit.
  ---------------------------------------------------------------------
                                               Max. Height   Min. Depth
                                   Hours       Above Crown    Below Rim
  Node                 Type      Surcharged         Meters       Meters
  ---------------------------------------------------------------------
  CSO7                 JUNCTION        1.66          0.945        0.000
  CSO9                 JUNCTION        1.48          1.682        0.000
  CSO8                 JUNCTION        1.55          1.547        0.000
  CSO10                JUNCTION        1.79          0.560        0.000
  J4                   JUNCTION        1.53          1.069        0.631
  
  
  *********************
  Node Flooding Summary
  *********************
  
  Flooding refers to all water that overflows a node, whether it ponds or not.
  --------------------------------------------------------------------------
                                                             Total   Maximum
                                 Maximum   Time of Max       Flood    Ponded
                        Hours       Rate    Occurrence      Volume     Depth
  Node                 Flooded       CMS   days hr:min    10^6 ltr    Meters
  --------------------------------------------------------------------------
  CSO7                    1.05     0.081      0  01:01       0.079     0.000
  CSO9                    0.09     0.019      0  03:01       0.002     0.000
  CSO8                    0.12     0.091      0  02:46       0.013     0.000
  CSO10                   1.31     1.244      0  01:06       1.774     0.000
  T5                     22.66     1.873      0  01:07       5.515     0.000
  T4                      2.51     0.156      0  03:17       0.713     0.000
  T6                      2.47     0.512      0  03:42       2.296     0.000
  T3                      1.10     0.533      0  04:04       0.673     0.000
  T2                      2.69     0.390      0  03:11       1.640     0.000
  T1                      3.88     2.929      0  01:13       9.943     0.000
  
  
  **********************
  Storage Volume Summary
  **********************
  
  --------------------------------------------------------------------------------------------------
                         Average     Avg  Evap Exfil       Maximum     Max    Time of Max    Maximum
                          Volume    Pcnt  Pcnt  Pcnt        Volume    Pcnt     Occurrence    Outflow
  Storage Unit           1000 m3    Full  Loss  Loss       1000 m3    Full    days hr:min        CMS
  --------------------------------------------------------------------------------------------------
  T5                       0.482      96     0     0         0.500     100       0  01:00      0.000
  T4                       0.332      66     0     0         0.500     100       0  02:45      0.028
  T6                       0.338      56     0     0         0.600     100       0  03:17      0.075
  T3                       2.071      80     0     0         2.600     100       0  03:55      0.127
  T2                       0.763      76     0     0         1.000     100       0  02:29      0.033
  T1                       0.451      64     0     0         0.700     100       0  00:58      0.271
  
  
  ***********************
  Outfall Loading Summary
  ***********************
  
  -----------------------------------------------------------
                         Flow       Avg       Max       Total
                         Freq      Flow      Flow      Volume
  Outfall Node           Pcnt       CMS       CMS    10^6 ltr
  -----------------------------------------------------------
  Out_to_WWTP           99.43     0.211     0.271      17.908
  -----------------------------------------------------------
  System                99.43     0.211     0.271      17.908
  
  
  ********************
  Link Flow Summary
  ********************
  
  -----------------------------------------------------------------------------
                                 Maximum  Time of Max   Maximum    Max/    Max/
                                  |Flow|   Occurrence   |Veloc|    Full    Full
  Link                 Type          CMS  days hr:min     m/sec    Flow   Depth
  -----------------------------------------------------------------------------
  C1                   CONDUIT     0.000     0  00:00      0.00    0.00    0.06
  C6                   CONDUIT     0.072     0  01:03      1.28    1.15    0.79
  C2                   CONDUIT     0.028     0  03:32      1.09    0.03    0.16
  C9                   CONDUIT     0.123     0  03:07      1.29    0.42    0.49
  C16                  CONDUIT     0.477     0  02:53      1.76    0.05    0.14
  C3                   CONDUIT     0.124     0  03:58      1.88    0.05    0.14
  C19                  CONDUIT     0.033     0  03:28      0.64    0.01    0.40
  C11                  CONDUIT     0.152     0  04:24      1.55    0.01    0.21
  C20                  CONDUIT     4.493     0  01:06      7.59    0.14    0.29
  C22                  CONDUIT     0.202     0  01:26      1.79    0.09    0.57
  C12                  CONDUIT     0.075     0  05:04      0.96    0.01    0.28
  C17                  CONDUIT     0.821     0  02:52      2.99    0.04    0.31
  C10                  CONDUIT     0.654     0  03:07      0.93    0.07    0.59
  C13                  CONDUIT     0.845     0  02:53      2.65    0.05    0.76
  C18                  CONDUIT     1.309     0  00:56      4.39    0.05    0.55
  C23                  CONDUIT     3.200     0  01:13      3.70    0.35    0.75
  C4                   CONDUIT     1.873     0  01:07      3.95    0.45    0.79
  C7                   CONDUIT     0.278     0  01:02      2.42    0.07    0.58
  C14                  CONDUIT     0.271     0  00:59      2.08    0.02    0.09
  C5                   CONDUIT     0.085     0  01:00      1.93    1.46    1.00
  C8                   CONDUIT     0.126     0  03:07      1.79    1.59    0.86
  C15                  CONDUIT     0.486     0  02:52      3.48    1.54    0.82
  C21                  CONDUIT     0.202     0  01:27      1.96    1.16    0.69
  V4                   ORIFICE     0.028     0  02:45                      0.35
  V5                   ORIFICE     0.000     0  00:00                      0.00
  V1                   ORIFICE     0.271     0  00:58                      1.00
  V6                   ORIFICE     0.075     0  03:17                      0.43
  V3                   ORIFICE     0.124     0  03:55                      0.65
  V2                   ORIFICE     0.033     0  02:29                      0.24
  
  
  ***************************
  Flow Classification Summary
  ***************************
  
  -------------------------------------------------------------------------------------
                      Adjusted    ---------- Fraction of Time in Flow Class ---------- 
                       /Actual         Up    Down  Sub   Sup   Up    Down  Norm  Inlet 
  Conduit               Length    Dry  Dry   Dry   Crit  Crit  Crit  Crit  Ltd   Ctrl  
  -------------------------------------------------------------------------------------
  C1                      1.00   0.04  0.96  0.00  0.00  0.00  0.00  0.00  0.00  0.00
  C6                      1.00   0.00  0.00  0.00  0.09  0.91  0.00  0.00  0.00  0.00
  C2                      1.00   0.04  0.00  0.00  0.27  0.69  0.00  0.00  0.96  0.00
  C9                      1.00   0.00  0.00  0.00  1.00  0.00  0.00  0.00  1.00  0.00
  C16                     1.00   0.00  0.01  0.00  0.70  0.29  0.00  0.00  0.55  0.00
  C3                      1.00   0.04  0.00  0.00  0.00  0.96  0.00  0.00  0.00  0.00
  C19                     1.00   0.00  0.04  0.00  0.96  0.00  0.00  0.00  0.96  0.00
  C11                     1.00   0.00  0.04  0.00  0.14  0.82  0.00  0.00  0.96  0.00
  C20                     1.00   0.00  0.00  0.00  0.81  0.19  0.00  0.00  0.99  0.00
  C22                     1.00   0.00  0.00  0.00  0.89  0.11  0.00  0.00  1.00  0.00
  C12                     1.00   0.00  0.04  0.00  0.76  0.20  0.00  0.00  0.77  0.00
  C17                     1.00   0.00  0.00  0.00  0.86  0.14  0.00  0.00  0.97  0.00
  C10                     1.00   0.00  0.00  0.00  0.97  0.03  0.00  0.00  0.98  0.00
  C13                     1.00   0.00  0.00  0.00  0.97  0.03  0.00  0.00  0.31  0.00
  C18                     1.00   0.00  0.00  0.00  0.96  0.04  0.00  0.00  0.98  0.00
  C23                     1.00   0.00  0.00  0.00  0.97  0.03  0.00  0.00  0.95  0.00
  C4                      1.00   0.00  0.00  0.00  0.97  0.03  0.00  0.00  0.98  0.00
  C7                      1.00   0.00  0.00  0.00  0.96  0.04  0.00  0.00  0.97  0.00
  C14                     1.00   0.00  0.00  0.00  0.00  1.00  0.00  0.00  0.64  0.00
  C5                      1.00   0.00  0.00  0.00  0.96  0.04  0.00  0.00  0.91  0.00
  C8                      1.00   0.00  0.00  0.00  0.16  0.84  0.00  0.00  0.01  0.00
  C15                     1.00   0.01  0.00  0.00  0.03  0.96  0.00  0.00  0.03  0.00
  C21                     1.00   0.00  0.00  0.00  0.01  0.99  0.00  0.00  0.00  0.00
  
  
  *************************
  Conduit Surcharge Summary
  *************************
  
  ----------------------------------------------------------------------------
                                                           Hours        Hours 
                         --------- Hours Full --------   Above Full   Capacity
  Conduit                Both Ends  Upstream  Dnstream   Normal Flow   Limited
  ----------------------------------------------------------------------------
  C6                          0.01      1.53      0.01      1.28         0.01
  C10                         0.01      0.01     18.00      0.01         0.01
  C13                         0.01      0.01     21.13      0.01         0.01
  C18                         0.01      0.01     22.49      0.01         0.01
  C23                         0.01      0.01     22.83      0.01         0.01
  C4                          0.01      0.01     22.88      0.01         0.01
  C7                          0.01      0.01     22.51      0.01         0.01
  C5                          1.58      1.66      1.87      1.78         1.52
  C8                          0.01      1.48      0.01      1.47         0.01
  C15                         0.01      1.55      0.01      1.68         0.01
  C21                         0.01      1.79      0.01      1.72         0.01
  

  Analysis begun on:  Tue Sep 21 10:05:34 2021
  Analysis ended on:  Tue Sep 21 10:05:35 2021
  Total elapsed time: 00:00:01