
  EPA STORM WATER MANAGEMENT MODEL - VERSION 5.1 (Build 5.3.0.dev0)
  --------------------------------------------------------------

  WARNING 09: time series interval greater than recording interval for Rain Gage RG1
  WARNING 09: time series interval greater than recording interval for Rain Gage RG2
  WARNING 09: time series interval greater than recording interval for Rain Gage RG3
  WARNING 09: time series interval greater than recording interval for Rain Gage RG4
  
  *********************************************************
  NOTE: The summary statistics displayed in this report are
  based on results found at every computational time step,  
  not just on results from each reporting time step.
  *********************************************************
  
  ****************
  Analysis Options
  ****************
  Flow Units ............... CMS
  Process Models:
    Rainfall/Runoff ........ YES
    RDII ................... NO
    Snowmelt ............... NO
    Groundwater ............ NO
    Flow Routing ........... YES
    Ponding Allowed ........ YES
    Water Quality .......... NO
  Infiltration Method ...... HORTON
  Flow Routing Method ...... DYNWAVE
  Surcharge Method ......... EXTRAN
  Starting Date ............ 08/28/2015 00:00:00
  Ending Date .............. 08/28/2015 23:40:00
  Antecedent Dry Days ...... 0.0
  Report Time Step ......... 00:01:00
  Wet Time Step ............ 00:01:00
  Dry Time Step ............ 00:01:00
  Routing Time Step ........ 5.00 sec
  Variable Time Step ....... YES
  Maximum Trials ........... 8
  Number of Threads ........ 1
  Head Tolerance ........... 0.001500 m
  
  
  **************************        Volume         Depth
  Runoff Quantity Continuity     hectare-m            mm
  **************************     ---------       -------
  Total Precipitation ......         2.087        11.583
  Evaporation Loss .........         0.000         0.000
  Infiltration Loss ........         0.000         0.000
  Surface Runoff ...........         2.065        11.461
  Final Storage ............         0.029         0.160
  Continuity Error (%) .....        -0.331
  
  
  **************************        Volume        Volume
  Flow Routing Continuity        hectare-m      10^6 ltr
  **************************     ---------     ---------
  Dry Weather Inflow .......         0.758         7.576
  Wet Weather Inflow .......         2.065        20.653
  Groundwater Inflow .......         0.000         0.000
  RDII Inflow ..............         0.000         0.000
  External Inflow ..........         0.000         0.000
  External Outflow .........         0.692         6.922
  Flooding Loss ............         1.185        11.848
  Evaporation Loss .........         0.000         0.000
  Exfiltration Loss ........         0.000         0.000
  Initial Stored Volume ....         0.000         0.000
  Final Stored Volume ......         0.715         7.147
  Continuity Error (%) .....         8.189
  
  
  *************************
  Highest Continuity Errors
  *************************
  Node T2 (31.90%)
  Node T3 (21.08%)
  Node T4 (17.95%)
  Node T5 (15.11%)
  Node T6 (8.88%)
  
  
  ***************************
  Time-Step Critical Elements
  ***************************
  None
  
  
  ********************************
  Highest Flow Instability Indexes
  ********************************
  All links are stable.
  
  
  *************************
  Routing Time Step Summary
  *************************
  Minimum Time Step           :     4.50 sec
  Average Time Step           :     5.00 sec
  Maximum Time Step           :     5.00 sec
  Percent in Steady State     :     0.00
  Average Iterations per Step :     2.08
  Percent Not Converging      :     0.18
  
  
  ***************************
  Subcatchment Runoff Summary
  ***************************
  
  ------------------------------------------------------------------------------------------------------------------------------
                            Total      Total      Total      Total     Imperv       Perv      Total       Total     Peak  Runoff
                           Precip      Runon       Evap      Infil     Runoff     Runoff     Runoff      Runoff   Runoff   Coeff
  Subcatchment                 mm         mm         mm         mm         mm         mm         mm    10^6 ltr      CMS
  ------------------------------------------------------------------------------------------------------------------------------
  SC01                      14.12       0.00       0.00       0.00      14.08       0.00      14.08        4.65     3.23   0.997
  SC02                       7.51       0.00       0.00       0.00       7.43       0.00       7.43        1.69     1.20   0.989
  SC03                       8.68       0.00       0.00       0.00       8.67       0.00       8.67        1.56     1.96   0.998
  SC04                       7.51       0.00       0.00       0.00       7.30       0.00       7.30        0.50     0.23   0.972
  SC05                      14.12       0.00       0.00       0.00      14.06       0.00      14.06        2.19     1.44   0.996
  SC06                      14.64       0.00       0.00       0.00      14.33       0.00      14.33        4.66     2.09   0.979
  SC07                       7.51       0.00       0.00       0.00       7.30       0.00       7.30        0.35     0.16   0.972
  SC08                       8.68       0.00       0.00       0.00       8.58       0.00       8.58        2.40     1.73   0.988
  SC09                      14.64       0.00       0.00       0.00      14.49       0.00      14.49        1.00     0.58   0.990
  SC010                     14.12       0.00       0.00       0.00      14.01       0.00      14.01        1.65     0.93   0.993
  
  
  ******************
  Node Depth Summary
  ******************
  
  ---------------------------------------------------------------------------------
                                 Average  Maximum  Maximum  Time of Max    Reported
                                   Depth    Depth      HGL   Occurrence   Max Depth
  Node                 Type       Meters   Meters   Meters  days hr:min      Meters
  ---------------------------------------------------------------------------------
  J1                   JUNCTION     0.05     0.40    34.40     0  17:06        0.39
  J3                   JUNCTION     0.02     0.12    18.12     0  20:33        0.12
  CSO7                 JUNCTION     0.08     1.20    35.20     0  17:00        1.20
  J5                   JUNCTION     0.04     0.18    32.18     0  17:07        0.18
  CSO9                 JUNCTION     0.12     2.00    42.00     0  16:45        2.00
  J8                   JUNCTION     0.08     0.47    36.47     0  17:01        0.47
  CSO8                 JUNCTION     0.09     2.00    34.00     0  16:45        2.00
  J10                  JUNCTION     0.05     0.43    29.43     0  16:52        0.42
  J13                  JUNCTION     0.04     0.28    29.28     0  17:06        0.28
  J15                  JUNCTION     0.09     0.52    15.52     0  17:08        0.52
  J16                  JUNCTION     0.05     0.42    30.42     0  17:06        0.41
  CSO10                JUNCTION     0.09     1.00    31.00     0  17:00        1.00
  J12                  JUNCTION     0.17     0.61    26.61     0  20:26        0.61
  J4                   JUNCTION     0.09     1.37    34.37     0  17:04        0.75
  J6                   JUNCTION     0.01     0.07    25.07     0  20:33        0.07
  J2                   JUNCTION     0.00     0.00    25.00     0  00:00        0.00
  J19                  JUNCTION     0.08     0.17     8.17     0  17:14        0.17
  J9                   JUNCTION     0.02     0.11    29.11     0  21:24        0.11
  J14                  JUNCTION     0.03     0.15    20.15     0  19:01        0.15
  J17                  JUNCTION     0.01     0.08    20.08     0  20:33        0.08
  J7                   JUNCTION     0.06     0.23    39.23     0  17:17        0.23
  J11                  JUNCTION     0.05     0.30    31.30     0  17:09        0.30
  J18                  JUNCTION     0.04     0.16    29.16     0  17:21        0.16
  Out_to_WWTP          OUTFALL      0.07     0.17     6.17     0  21:11        0.17
  T5                   STORAGE      2.54     5.00    32.00     0  16:57        5.00
  T4                   STORAGE      2.30     5.00    32.00     0  17:14        5.00
  T6                   STORAGE      2.89     5.00    36.00     0  14:42        5.00
  T3                   STORAGE      1.58     4.61    26.61     0  20:30        4.61
  T2                   STORAGE      1.85     5.00    26.00     0  17:40        5.00
  T1                   STORAGE      1.21     5.00    15.00     0  17:13        5.00
  
  
  *******************
  Node Inflow Summary
  *******************
  
  -------------------------------------------------------------------------------------------------
                                  Maximum  Maximum                  Lateral       Total        Flow
                                  Lateral    Total  Time of Max      Inflow      Inflow     Balance
                                   Inflow   Inflow   Occurrence      Volume      Volume       Error
  Node                 Type           CMS      CMS  days hr:min    10^6 ltr    10^6 ltr     Percent
  -------------------------------------------------------------------------------------------------
  J1                   JUNCTION     1.455    1.455     0  17:06        3.29        3.29       0.007
  J3                   JUNCTION     0.000    0.147     0  20:31           0        2.46       1.262
  CSO7                 JUNCTION     0.164    0.164     0  17:06       0.912       0.912       0.022
  J5                   JUNCTION     0.231    0.303     0  17:06       0.752        1.62       0.051
  CSO9                 JUNCTION     0.584    0.584     0  16:56        1.38        1.38      -0.021
  J8                   JUNCTION     2.110    2.237     0  17:01         6.5        7.55       0.053
  CSO8                 JUNCTION     1.735    1.735     0  16:51        2.85        2.85      -0.026
  J10                  JUNCTION     1.974    2.402     0  16:51        2.31        4.51      -0.118
  J13                  JUNCTION     1.215    1.215     0  17:06         2.6         2.6      -0.048
  J15                  JUNCTION     0.000    3.251     0  17:06           0        10.2       0.734
  J16                  JUNCTION     3.244    3.244     0  17:06        5.72        5.72      -0.121
  CSO10                JUNCTION     0.932    0.932     0  17:06        1.92        1.92      -0.048
  J12                  JUNCTION     0.000    1.922     0  16:52           0        6.01       4.231
  J4                   JUNCTION     0.000    0.085     0  17:02           0       0.866       0.082
  J6                   JUNCTION     0.000    0.028     0  19:50           0       0.466       0.751
  J2                   JUNCTION     0.000    0.000     0  00:00           0           0       0.000 ltr
  J19                  JUNCTION     0.000    0.271     0  17:13           0        6.93       0.160
  J9                   JUNCTION     0.000    0.075     0  19:00           0        1.26       2.066
  J14                  JUNCTION     0.000    0.119     0  20:31           0        2.01       0.321
  J17                  JUNCTION     0.000    0.033     0  19:43           0       0.557       1.052
  J7                   JUNCTION     0.000    0.127     0  17:17           0        1.05       0.133
  J11                  JUNCTION     0.000    0.487     0  17:08           0         2.2       0.156
  J18                  JUNCTION     0.000    0.202     0  17:21           0        1.45       0.027
  Out_to_WWTP          OUTFALL      0.000    0.271     0  20:00           0        6.92       0.000
  T5                   STORAGE      0.000    1.329     0  17:06           0        3.29      17.801
  T4                   STORAGE      0.000    0.284     0  17:07           0        1.62      21.881
  T6                   STORAGE      0.000    2.102     0  17:01           0        7.54       9.740
  T3                   STORAGE      0.000    1.639     0  16:58           0        5.76      26.709
  T2                   STORAGE      0.000    1.124     0  17:06           0         2.6      46.841
  T1                   STORAGE      0.000    2.371     0  17:08           0        10.1       5.826
  
  
  **********************
  Node Surcharge Summary
  **********************
  
  Surcharging occurs when water rises above the top of the highest conduit.
  ---------------------------------------------------------------------
                                               Max. Height   Min. Depth
                                   Hours       Above Crown    Below Rim
  Node                 Type      Surcharged         Meters       Meters
  ---------------------------------------------------------------------
  CSO7                 JUNCTION        0.46          0.945        0.000
  CSO9                 JUNCTION        0.84          1.682        0.000
  CSO8                 JUNCTION        0.51          1.547        0.000
  CSO10                JUNCTION        0.80          0.560        0.000
  J4                   JUNCTION        0.43          1.073        0.627
  
  
  *********************
  Node Flooding Summary
  *********************
  
  Flooding refers to all water that overflows a node, whether it ponds or not.
  --------------------------------------------------------------------------
                                                             Total   Maximum
                                 Maximum   Time of Max       Flood    Ponded
                        Hours       Rate    Occurrence      Volume     Depth
  Node                 Flooded       CMS   days hr:min    10^6 ltr    Meters
  --------------------------------------------------------------------------
  CSO7                    0.35     0.092      0  17:06       0.046     0.000
  CSO9                    0.54     0.457      0  16:56       0.327     0.000
  CSO8                    0.33     1.253      0  16:51       0.651     0.000
  CSO10                   0.67     0.729      0  17:06       0.471     0.000
  T5                      6.72     1.328      0  17:06       2.290     0.000
  T4                      2.45     0.216      0  17:14       0.464     0.000
  T6                      5.96     2.102      0  17:02       5.144     0.000
  T2                      2.10     0.169      0  19:43       0.340     0.000
  T1                      1.51     1.553      0  19:58       2.115     0.000
  
  
  **********************
  Storage Volume Summary
  **********************
  
  --------------------------------------------------------------------------------------------------
                         Average     Avg  Evap Exfil       Maximum     Max    Time of Max    Maximum
                          Volume    Pcnt  Pcnt  Pcnt        Volume    Pcnt     Occurrence    Outflow
  Storage Unit           1000 m3    Full  Loss  Loss       1000 m3    Full    days hr:min        CMS
  --------------------------------------------------------------------------------------------------
  T5                       0.254      51     0     0         0.500     100       0  16:57      0.000
  T4                       0.230      46     0     0         0.500     100       0  17:14      0.028
  T6                       0.347      58     0     0         0.600     100       0  14:42      0.075
  T3                       0.821      32     0     0         2.398      92       0  20:30      0.171
  T2                       0.370      37     0     0         1.000     100       0  17:40      0.033
  T1                       0.170      24     0     0         0.700     100       0  17:13      0.271
  
  
  ***********************
  Outfall Loading Summary
  ***********************
  
  -----------------------------------------------------------
                         Flow       Avg       Max       Total
                         Freq      Flow      Flow      Volume
  Outfall Node           Pcnt       CMS       CMS    10^6 ltr
  -----------------------------------------------------------
  Out_to_WWTP           99.43     0.082     0.271       6.922
  -----------------------------------------------------------
  System                99.43     0.082     0.271       6.922
  
  
  ********************
  Link Flow Summary
  ********************
  
  -----------------------------------------------------------------------------
                                 Maximum  Time of Max   Maximum    Max/    Max/
                                  |Flow|   Occurrence   |Veloc|    Full    Full
  Link                 Type          CMS  days hr:min     m/sec    Flow   Depth
  -----------------------------------------------------------------------------
  C1                   CONDUIT     0.000     0  00:00      0.00    0.00    0.06
  C6                   CONDUIT     0.072     0  17:07      1.28    1.15    0.80
  C2                   CONDUIT     0.028     0  20:30      1.06    0.03    0.16
  C9                   CONDUIT     0.127     0  17:17      1.26    0.43    0.70
  C16                  CONDUIT     0.486     0  17:03      1.83    0.05    0.18
  C3                   CONDUIT     0.119     0  19:02      2.02    0.05    0.14
  C19                  CONDUIT     0.033     0  20:33      0.88    0.01    0.27
  C11                  CONDUIT     0.147     0  20:33      1.75    0.01    0.14
  C20                  CONDUIT     3.049     0  17:06      6.03    0.10    0.22
  C22                  CONDUIT     0.202     0  17:21      1.63    0.09    0.43
  C12                  CONDUIT     0.075     0  21:20      0.30    0.01    0.18
  C17                  CONDUIT     1.922     0  16:52      4.38    0.10    0.20
  C10                  CONDUIT     2.102     0  17:01      1.70    0.22    0.66
  C13                  CONDUIT     1.639     0  16:58      0.83    0.10    0.65
  C18                  CONDUIT     1.124     0  17:06      1.01    0.04    0.57
  C23                  CONDUIT     2.371     0  17:08      1.87    0.26    0.67
  C4                   CONDUIT     1.329     0  17:06      2.27    0.32    0.70
  C7                   CONDUIT     0.284     0  17:07      0.80    0.07    0.59
  C14                  CONDUIT     0.271     0  20:00      2.08    0.02    0.09
  C5                   CONDUIT     0.085     0  17:02      1.67    1.46    1.00
  C8                   CONDUIT     0.127     0  17:17      2.02    1.60    0.86
  C15                  CONDUIT     0.487     0  17:08      3.57    1.55    0.83
  C21                  CONDUIT     0.202     0  17:21      2.01    1.16    0.69
  V4                   ORIFICE     0.028     0  19:50                      0.35
  V5                   ORIFICE     0.000     0  00:00                      0.00
  V1                   ORIFICE     0.271     0  17:13                      1.00
  V6                   ORIFICE     0.075     0  19:00                      0.43
  V3                   ORIFICE     0.119     0  20:31                      0.65
  V2                   ORIFICE     0.033     0  19:43                      0.24
  
  
  ***************************
  Flow Classification Summary
  ***************************
  
  -------------------------------------------------------------------------------------
                      Adjusted    ---------- Fraction of Time in Flow Class ---------- 
                       /Actual         Up    Down  Sub   Sup   Up    Down  Norm  Inlet 
  Conduit               Length    Dry  Dry   Dry   Crit  Crit  Crit  Crit  Ltd   Ctrl  
  -------------------------------------------------------------------------------------
  C1                      1.00   0.80  0.20  0.00  0.00  0.00  0.00  0.00  0.00  0.00
  C6                      1.00   0.00  0.00  0.00  0.03  0.97  0.00  0.00  0.00  0.00
  C2                      1.00   0.80  0.00  0.00  0.00  0.20  0.00  0.00  0.20  0.00
  C9                      1.00   0.00  0.00  0.00  1.00  0.00  0.00  0.00  1.00  0.00
  C16                     1.00   0.00  0.25  0.00  0.62  0.13  0.00  0.00  0.58  0.00
  C3                      1.00   0.80  0.00  0.00  0.00  0.20  0.00  0.00  0.00  0.00
  C19                     1.00   0.00  0.80  0.00  0.20  0.00  0.00  0.00  0.20  0.00
  C11                     1.00   0.00  0.80  0.00  0.04  0.17  0.00  0.00  0.20  0.00
  C20                     1.00   0.00  0.00  0.00  0.15  0.85  0.00  0.00  0.99  0.00
  C22                     1.00   0.00  0.00  0.00  0.88  0.12  0.00  0.00  1.00  0.00
  C12                     1.00   0.00  0.80  0.00  0.20  0.00  0.00  0.00  0.20  0.00
  C17                     1.00   0.00  0.00  0.00  0.26  0.74  0.00  0.00  0.93  0.00
  C10                     1.00   0.00  0.00  0.00  0.98  0.02  0.00  0.00  0.98  0.00
  C13                     1.00   0.00  0.00  0.00  0.93  0.07  0.00  0.00  0.67  0.00
  C18                     1.00   0.00  0.00  0.00  0.97  0.03  0.00  0.00  0.98  0.00
  C23                     1.00   0.00  0.00  0.00  0.32  0.68  0.00  0.00  0.92  0.00
  C4                      1.00   0.00  0.00  0.00  0.98  0.02  0.00  0.00  0.99  0.00
  C7                      1.00   0.00  0.00  0.00  0.97  0.03  0.00  0.00  0.98  0.00
  C14                     1.00   0.00  0.00  0.00  0.00  1.00  0.00  0.00  0.45  0.00
  C5                      1.00   0.00  0.00  0.00  0.93  0.07  0.00  0.00  0.96  0.00
  C8                      1.00   0.00  0.00  0.00  0.24  0.76  0.00  0.00  0.00  0.00
  C15                     1.00   0.25  0.00  0.00  0.00  0.75  0.00  0.00  0.00  0.00
  C21                     1.00   0.00  0.00  0.00  0.00  1.00  0.00  0.00  0.00  0.00
  
  
  *************************
  Conduit Surcharge Summary
  *************************
  
  ----------------------------------------------------------------------------
                                                           Hours        Hours 
                         --------- Hours Full --------   Above Full   Capacity
  Conduit                Both Ends  Upstream  Dnstream   Normal Flow   Limited
  ----------------------------------------------------------------------------
  C6                          0.01      0.43      0.01      0.33         0.01
  C10                         0.01      0.01     15.44      0.01         0.01
  C13                         0.01      0.01      6.77      0.01         0.01
  C18                         0.01      0.01      6.79      0.01         0.01
  C23                         0.01      0.01      6.62      0.01         0.01
  C4                          0.01      0.01     15.77      0.01         0.01
  C7                          0.01      0.01     15.10      0.01         0.01
  C5                          0.43      0.46      0.53      0.45         0.40
  C8                          0.01      0.84      0.01      0.86         0.01
  C15                         0.01      0.51      0.01      0.53         0.01
  C21                         0.01      0.80      0.01      0.77         0.01
  

  Analysis begun on:  Tue Sep 21 10:07:26 2021
  Analysis ended on:  Tue Sep 21 10:07:26 2021
  Total elapsed time: < 1 sec