
  EPA STORM WATER MANAGEMENT MODEL - VERSION 5.1 (Build 5.3.0.dev0)
  --------------------------------------------------------------

  WARNING 09: time series interval greater than recording interval for Rain Gage RG1
  WARNING 09: time series interval greater than recording interval for Rain Gage RG2
  WARNING 09: time series interval greater than recording interval for Rain Gage RG3
  WARNING 09: time series interval greater than recording interval for Rain Gage RG4
  
  *********************************************************
  NOTE: The summary statistics displayed in this report are
  based on results found at every computational time step,  
  not just on results from each reporting time step.
  *********************************************************
  
  ****************
  Analysis Options
  ****************
  Flow Units ............... CMS
  Process Models:
    Rainfall/Runoff ........ YES
    RDII ................... NO
    Snowmelt ............... NO
    Groundwater ............ NO
    Flow Routing ........... YES
    Ponding Allowed ........ YES
    Water Quality .......... NO
  Infiltration Method ...... HORTON
  Flow Routing Method ...... DYNWAVE
  Surcharge Method ......... EXTRAN
  Starting Date ............ 08/28/2015 00:00:00
  Ending Date .............. 08/28/2015 23:40:00
  Antecedent Dry Days ...... 0.0
  Report Time Step ......... 00:01:00
  Wet Time Step ............ 00:01:00
  Dry Time Step ............ 00:01:00
  Routing Time Step ........ 5.00 sec
  Variable Time Step ....... YES
  Maximum Trials ........... 8
  Number of Threads ........ 1
  Head Tolerance ........... 0.001500 m
  
  
  **************************        Volume         Depth
  Runoff Quantity Continuity     hectare-m            mm
  **************************     ---------       -------
  Total Precipitation ......         2.318        12.863
  Evaporation Loss .........         0.000         0.000
  Infiltration Loss ........         0.000         0.000
  Surface Runoff ...........         2.298        12.755
  Final Storage ............         0.020         0.112
  Continuity Error (%) .....        -0.030
  
  
  **************************        Volume        Volume
  Flow Routing Continuity        hectare-m      10^6 ltr
  **************************     ---------     ---------
  Dry Weather Inflow .......         0.758         7.576
  Wet Weather Inflow .......         2.298        22.984
  Groundwater Inflow .......         0.000         0.000
  RDII Inflow ..............         0.000         0.000
  External Inflow ..........         0.000         0.000
  External Outflow .........         1.362        13.624
  Flooding Loss ............         0.809         8.091
  Evaporation Loss .........         0.000         0.000
  Exfiltration Loss ........         0.000         0.000
  Initial Stored Volume ....         0.000         0.000
  Final Stored Volume ......         0.684         6.843
  Continuity Error (%) .....         6.548
  
  
  *************************
  Highest Continuity Errors
  *************************
  Node T5 (16.64%)
  Node T2 (16.62%)
  Node T3 (13.52%)
  Node T4 (9.33%)
  Node T6 (6.48%)
  
  
  ***************************
  Time-Step Critical Elements
  ***************************
  None
  
  
  ********************************
  Highest Flow Instability Indexes
  ********************************
  Link C15 (1)
  
  
  *************************
  Routing Time Step Summary
  *************************
  Minimum Time Step           :     4.50 sec
  Average Time Step           :     5.00 sec
  Maximum Time Step           :     5.00 sec
  Percent in Steady State     :     0.00
  Average Iterations per Step :     2.00
  Percent Not Converging      :     0.00
  
  
  ***************************
  Subcatchment Runoff Summary
  ***************************
  
  ------------------------------------------------------------------------------------------------------------------------------
                            Total      Total      Total      Total     Imperv       Perv      Total       Total     Peak  Runoff
                           Precip      Runon       Evap      Infil     Runoff     Runoff     Runoff      Runoff   Runoff   Coeff
  Subcatchment                 mm         mm         mm         mm         mm         mm         mm    10^6 ltr      CMS
  ------------------------------------------------------------------------------------------------------------------------------
  SC01                      12.22       0.00       0.00       0.00      12.14       0.00      12.14        4.01     0.19   0.994
  SC02                      17.14       0.00       0.00       0.00      17.06       0.00      17.06        3.88     0.16   0.995
  SC03                       9.78       0.00       0.00       0.00       9.72       0.00       9.72        1.75     0.11   0.994
  SC04                      17.14       0.00       0.00       0.00      16.98       0.00      16.98        1.17     0.04   0.990
  SC05                      12.22       0.00       0.00       0.00      12.14       0.00      12.14        1.89     0.09   0.993
  SC06                      13.71       0.00       0.00       0.00      13.52       0.00      13.52        4.40     0.15   0.986
  SC07                      17.14       0.00       0.00       0.00      16.98       0.00      16.98        0.81     0.03   0.991
  SC08                       9.78       0.00       0.00       0.00       9.68       0.00       9.68        2.71     0.14   0.990
  SC09                      13.71       0.00       0.00       0.00      13.59       0.00      13.59        0.94     0.03   0.991
  SC010                     12.22       0.00       0.00       0.00      12.12       0.00      12.12        1.42     0.06   0.992
  
  
  ******************
  Node Depth Summary
  ******************
  
  ---------------------------------------------------------------------------------
                                 Average  Maximum  Maximum  Time of Max    Reported
                                   Depth    Depth      HGL   Occurrence   Max Depth
  Node                 Type       Meters   Meters   Meters  days hr:min      Meters
  ---------------------------------------------------------------------------------
  J1                   JUNCTION     0.06     0.11    34.11     0  08:32        0.11
  J3                   JUNCTION     0.07     0.12    18.12     0  19:07        0.12
  CSO7                 JUNCTION     0.09     0.16    34.16     0  12:26        0.16
  J5                   JUNCTION     0.06     0.10    32.10     0  12:27        0.10
  CSO9                 JUNCTION     0.09     0.16    40.16     0  08:16        0.16
  J8                   JUNCTION     0.09     0.15    36.15     0  08:17        0.15
  CSO8                 JUNCTION     0.09     0.23    32.23     0  12:31        0.23
  J10                  JUNCTION     0.07     0.16    29.16     0  12:37        0.16
  J13                  JUNCTION     0.06     0.11    29.11     0  12:27        0.11
  J15                  JUNCTION     0.13     0.21    15.21     0  12:59        0.21
  J16                  JUNCTION     0.06     0.11    30.11     0  08:32        0.11
  CSO10                JUNCTION     0.10     0.20    30.20     0  08:31        0.20
  J12                  JUNCTION     0.31     0.77    26.77     0  19:00        0.77
  J4                   JUNCTION     0.11     0.19    33.19     0  12:28        0.19
  J6                   JUNCTION     0.04     0.07    25.07     0  10:31        0.07
  J2                   JUNCTION     0.00     0.00    25.00     0  00:00        0.00
  J19                  JUNCTION     0.12     0.17     8.17     0  12:56        0.17
  J9                   JUNCTION     0.06     0.11    29.11     0  11:02        0.11
  J14                  JUNCTION     0.09     0.15    20.15     0  19:05        0.15
  J17                  JUNCTION     0.04     0.08    20.08     0  18:24        0.08
  J7                   JUNCTION     0.07     0.12    39.12     0  08:18        0.12
  J11                  JUNCTION     0.07     0.17    31.17     0  12:38        0.17
  J18                  JUNCTION     0.05     0.09    29.09     0  08:33        0.09
  Out_to_WWTP          OUTFALL      0.12     0.17     6.17     0  16:42        0.17
  T5                   STORAGE      3.38     5.00    32.00     0  10:13        5.00
  T4                   STORAGE      3.49     5.00    32.00     0  09:06        5.00
  T6                   STORAGE      3.71     5.00    36.00     0  07:09        5.00
  T3                   STORAGE      2.56     4.77    26.77     0  19:05        4.77
  T2                   STORAGE      3.47     5.00    26.00     0  11:18        5.00
  T1                   STORAGE      2.53     5.00    15.00     0  12:55        5.00
  
  
  *******************
  Node Inflow Summary
  *******************
  
  -------------------------------------------------------------------------------------------------
                                  Maximum  Maximum                  Lateral       Total        Flow
                                  Lateral    Total  Time of Max      Inflow      Inflow     Balance
                                   Inflow   Inflow   Occurrence      Volume      Volume       Error
  Node                 Type           CMS      CMS  days hr:min    10^6 ltr    10^6 ltr     Percent
  -------------------------------------------------------------------------------------------------
  J1                   JUNCTION     0.105    0.105     0  08:31        2.99        2.99      -0.007
  J3                   JUNCTION     0.000    0.149     0  19:06           0        6.95       0.455
  CSO7                 JUNCTION     0.043    0.043     0  12:26        1.37        1.37       0.010
  J5                   JUNCTION     0.049    0.088     0  12:26        1.42        2.79       0.003
  CSO9                 JUNCTION     0.040    0.040     0  08:16        1.32        1.32       0.009
  J8                   JUNCTION     0.178    0.215     0  08:16        6.23        7.55       0.009
  CSO8                 JUNCTION     0.153    0.153     0  12:36        3.16        3.16       0.001
  J10                  JUNCTION     0.124    0.257     0  12:36         2.5        5.66      -0.068
  J13                  JUNCTION     0.183    0.183     0  12:26        4.79        4.79      -0.081
  J15                  JUNCTION     0.000    0.389     0  12:57           0        15.4       0.444
  J16                  JUNCTION     0.208    0.208     0  08:31        5.09        5.09      -0.034
  CSO10                JUNCTION     0.067    0.067     0  08:31        1.69        1.69       0.007
  J12                  JUNCTION     0.000    0.323     0  12:38           0        9.34       2.867
  J4                   JUNCTION     0.000    0.042     0  12:26           0        1.37       0.089
  J6                   JUNCTION     0.000    0.028     0  09:40           0        1.39       0.228
  J2                   JUNCTION     0.000    0.000     0  00:00           0           0       0.000 ltr
  J19                  JUNCTION     0.000    0.271     0  12:55           0        13.6       0.075
  J9                   JUNCTION     0.000    0.075     0  09:40           0         3.7       0.410
  J14                  JUNCTION     0.000    0.121     0  19:05           0        5.56       0.120
  J17                  JUNCTION     0.000    0.033     0  11:18           0        1.66       0.396
  J7                   JUNCTION     0.000    0.039     0  08:17           0        1.32       0.078
  J11                  JUNCTION     0.000    0.152     0  12:36           0        3.16       0.026
  J18                  JUNCTION     0.000    0.065     0  08:32           0        1.69      -0.024
  Out_to_WWTP          OUTFALL      0.000    0.271     0  12:56           0        13.6       0.000
  T5                   STORAGE      0.000    0.100     0  08:32           0        2.99      19.958
  T4                   STORAGE      0.000    0.086     0  12:27           0        2.79      10.286
  T6                   STORAGE      0.000    0.208     0  08:17           0        7.55       6.924
  T3                   STORAGE      0.000    0.318     0  12:40           0        9.08      15.629
  T2                   STORAGE      0.000    0.172     0  12:27           0        4.79      19.927
  T1                   STORAGE      0.000    0.381     0  12:59           0        15.3       3.230
  
  
  **********************
  Node Surcharge Summary
  **********************
  
  No nodes were surcharged.
  
  
  *********************
  Node Flooding Summary
  *********************
  
  Flooding refers to all water that overflows a node, whether it ponds or not.
  --------------------------------------------------------------------------
                                                             Total   Maximum
                                 Maximum   Time of Max       Flood    Ponded
                        Hours       Rate    Occurrence      Volume     Depth
  Node                 Flooded       CMS   days hr:min    10^6 ltr    Meters
  --------------------------------------------------------------------------
  T5                     13.45     0.094      0  12:37       1.990     0.000
  T4                      7.53     0.058      0  12:27       0.785     0.000
  T6                      9.84     0.208      0  08:17       3.026     0.000
  T2                      7.19     0.139      0  12:27       1.504     0.000
  T1                      3.50     0.111      0  12:59       0.786     0.000
  
  
  **********************
  Storage Volume Summary
  **********************
  
  --------------------------------------------------------------------------------------------------
                         Average     Avg  Evap Exfil       Maximum     Max    Time of Max    Maximum
                          Volume    Pcnt  Pcnt  Pcnt        Volume    Pcnt     Occurrence    Outflow
  Storage Unit           1000 m3    Full  Loss  Loss       1000 m3    Full    days hr:min        CMS
  --------------------------------------------------------------------------------------------------
  T5                       0.338      68     0     0         0.500     100       0  10:13      0.000
  T4                       0.349      70     0     0         0.500     100       0  09:06      0.028
  T6                       0.445      74     0     0         0.600     100       0  07:09      0.075
  T3                       1.329      51     0     0         2.479      95       0  19:05      0.121
  T2                       0.694      69     0     0         1.000     100       0  11:18      0.033
  T1                       0.354      51     0     0         0.700     100       0  12:55      0.271
  
  
  ***********************
  Outfall Loading Summary
  ***********************
  
  -----------------------------------------------------------
                         Flow       Avg       Max       Total
                         Freq      Flow      Flow      Volume
  Outfall Node           Pcnt       CMS       CMS    10^6 ltr
  -----------------------------------------------------------
  Out_to_WWTP           99.43     0.161     0.271      13.624
  -----------------------------------------------------------
  System                99.43     0.161     0.271      13.624
  
  
  ********************
  Link Flow Summary
  ********************
  
  -----------------------------------------------------------------------------
                                 Maximum  Time of Max   Maximum    Max/    Max/
                                  |Flow|   Occurrence   |Veloc|    Full    Full
  Link                 Type          CMS  days hr:min     m/sec    Flow   Depth
  -----------------------------------------------------------------------------
  C1                   CONDUIT     0.000     0  00:00      0.00    0.00    0.06
  C6                   CONDUIT     0.041     0  12:28      1.20    0.64    0.48
  C2                   CONDUIT     0.028     0  10:31      1.33    0.03    0.16
  C9                   CONDUIT     0.038     0  08:18      0.87    0.13    0.27
  C16                  CONDUIT     0.142     0  12:38      1.21    0.01    0.08
  C3                   CONDUIT     0.121     0  19:06      1.87    0.05    0.14
  C19                  CONDUIT     0.033     0  12:10      0.67    0.01    0.14
  C11                  CONDUIT     0.149     0  19:07      1.58    0.01    0.08
  C20                  CONDUIT     0.195     0  08:32      2.11    0.01    0.08
  C22                  CONDUIT     0.062     0  08:33      1.16    0.03    0.19
  C12                  CONDUIT     0.075     0  11:02      0.93    0.01    0.22
  C17                  CONDUIT     0.248     0  12:38      1.89    0.01    0.21
  C10                  CONDUIT     0.208     0  08:17      0.93    0.02    0.55
  C13                  CONDUIT     0.318     0  12:40      0.66    0.02    0.69
  C18                  CONDUIT     0.172     0  12:27      1.01    0.01    0.53
  C23                  CONDUIT     0.381     0  12:59      0.96    0.04    0.57
  C4                   CONDUIT     0.100     0  08:32      1.12    0.02    0.55
  C7                   CONDUIT     0.086     0  12:27      0.80    0.02    0.55
  C14                  CONDUIT     0.271     0  12:56      2.08    0.02    0.09
  C5                   CONDUIT     0.042     0  12:26      1.13    0.72    0.68
  C8                   CONDUIT     0.039     0  08:17      1.14    0.49    0.45
  C15                  CONDUIT     0.152     0  12:36      2.28    0.48    0.44
  C21                  CONDUIT     0.065     0  08:32      1.45    0.37    0.33
  V4                   ORIFICE     0.028     0  09:40                      0.35
  V5                   ORIFICE     0.000     0  00:00                      0.00
  V1                   ORIFICE     0.271     0  12:55                      1.00
  V6                   ORIFICE     0.075     0  09:40                      0.43
  V3                   ORIFICE     0.121     0  19:05                      0.65
  V2                   ORIFICE     0.033     0  11:18                      0.24
  
  
  ***************************
  Flow Classification Summary
  ***************************
  
  -------------------------------------------------------------------------------------
                      Adjusted    ---------- Fraction of Time in Flow Class ---------- 
                       /Actual         Up    Down  Sub   Sup   Up    Down  Norm  Inlet 
  Conduit               Length    Dry  Dry   Dry   Crit  Crit  Crit  Crit  Ltd   Ctrl  
  -------------------------------------------------------------------------------------
  C1                      1.00   0.40  0.60  0.00  0.00  0.00  0.00  0.00  0.00  0.00
  C6                      1.00   0.00  0.00  0.00  0.01  0.99  0.00  0.00  0.00  0.00
  C2                      1.00   0.40  0.00  0.00  0.00  0.60  0.00  0.00  0.59  0.00
  C9                      1.00   0.00  0.00  0.00  1.00  0.00  0.00  0.00  1.00  0.00
  C16                     1.00   0.00  0.11  0.00  0.38  0.51  0.00  0.00  0.38  0.00
  C3                      1.00   0.40  0.00  0.00  0.00  0.60  0.00  0.00  0.00  0.00
  C19                     1.00   0.00  0.40  0.00  0.60  0.00  0.00  0.00  0.60  0.00
  C11                     1.00   0.00  0.40  0.00  0.01  0.59  0.00  0.00  0.60  0.00
  C20                     1.00   0.00  0.00  0.00  0.33  0.67  0.00  0.00  0.99  0.00
  C22                     1.00   0.00  0.00  0.00  0.76  0.24  0.00  0.00  1.00  0.00
  C12                     1.00   0.00  0.40  0.00  0.59  0.01  0.00  0.00  0.60  0.00
  C17                     1.00   0.00  0.00  0.00  0.41  0.59  0.00  0.00  0.93  0.00
  C10                     1.00   0.00  0.00  0.00  0.98  0.02  0.00  0.00  0.98  0.00
  C13                     1.00   0.00  0.00  0.00  0.91  0.09  0.00  0.00  0.52  0.00
  C18                     1.00   0.00  0.00  0.00  0.97  0.03  0.00  0.00  0.98  0.00
  C23                     1.00   0.00  0.00  0.00  0.77  0.23  0.00  0.00  0.92  0.00
  C4                      1.00   0.00  0.00  0.00  0.98  0.02  0.00  0.00  0.99  0.00
  C7                      1.00   0.00  0.00  0.00  0.97  0.03  0.00  0.00  0.98  0.00
  C14                     1.00   0.00  0.00  0.00  0.00  1.00  0.00  0.00  0.33  0.00
  C5                      1.00   0.00  0.00  0.00  0.90  0.10  0.00  0.00  0.99  0.00
  C8                      1.00   0.00  0.00  0.00  0.15  0.85  0.00  0.00  0.00  0.00
  C15                     1.00   0.11  0.00  0.00  0.00  0.89  0.00  0.00  0.00  0.00
  C21                     1.00   0.00  0.00  0.00  0.00  1.00  0.00  0.00  0.00  0.00
  
  
  *************************
  Conduit Surcharge Summary
  *************************
  
  ----------------------------------------------------------------------------
                                                           Hours        Hours 
                         --------- Hours Full --------   Above Full   Capacity
  Conduit                Both Ends  Upstream  Dnstream   Normal Flow   Limited
  ----------------------------------------------------------------------------
  C10                         0.01      0.01     18.97      0.01         0.01
  C13                         0.01      0.01     12.84      0.01         0.01
  C18                         0.01      0.01     16.96      0.01         0.01
  C23                         0.01      0.01     14.48      0.01         0.01
  C4                          0.01      0.01     17.46      0.01         0.01
  C7                          0.01      0.01     18.85      0.01         0.01
  

  Analysis begun on:  Tue Sep 21 09:06:24 2021
  Analysis ended on:  Tue Sep 21 09:06:25 2021
  Total elapsed time: 00:00:01