
  EPA STORM WATER MANAGEMENT MODEL - VERSION 5.1 (Build 5.3.0.dev0)
  --------------------------------------------------------------

  WARNING 09: time series interval greater than recording interval for Rain Gage RG1
  WARNING 09: time series interval greater than recording interval for Rain Gage RG2
  WARNING 09: time series interval greater than recording interval for Rain Gage RG3
  WARNING 09: time series interval greater than recording interval for Rain Gage RG4
  
  *********************************************************
  NOTE: The summary statistics displayed in this report are
  based on results found at every computational time step,  
  not just on results from each reporting time step.
  *********************************************************
  
  ****************
  Analysis Options
  ****************
  Flow Units ............... CMS
  Process Models:
    Rainfall/Runoff ........ YES
    RDII ................... NO
    Snowmelt ............... NO
    Groundwater ............ NO
    Flow Routing ........... YES
    Ponding Allowed ........ YES
    Water Quality .......... NO
  Infiltration Method ...... HORTON
  Flow Routing Method ...... DYNWAVE
  Surcharge Method ......... EXTRAN
  Starting Date ............ 08/28/2015 00:00:00
  Ending Date .............. 08/28/2015 23:40:00
  Antecedent Dry Days ...... 0.0
  Report Time Step ......... 00:01:00
  Wet Time Step ............ 00:01:00
  Dry Time Step ............ 00:01:00
  Routing Time Step ........ 5.00 sec
  Variable Time Step ....... YES
  Maximum Trials ........... 8
  Number of Threads ........ 1
  Head Tolerance ........... 0.001500 m
  
  
  **************************        Volume         Depth
  Runoff Quantity Continuity     hectare-m            mm
  **************************     ---------       -------
  Total Precipitation ......         2.317        12.856
  Evaporation Loss .........         0.000         0.000
  Infiltration Loss ........         0.000         0.000
  Surface Runoff ...........         2.297        12.748
  Final Storage ............         0.022         0.121
  Continuity Error (%) .....        -0.102
  
  
  **************************        Volume        Volume
  Flow Routing Continuity        hectare-m      10^6 ltr
  **************************     ---------     ---------
  Dry Weather Inflow .......         0.758         7.576
  Wet Weather Inflow .......         2.297        22.971
  Groundwater Inflow .......         0.000         0.000
  RDII Inflow ..............         0.000         0.000
  External Inflow ..........         0.000         0.000
  External Outflow .........         0.958         9.584
  Flooding Loss ............         1.209        12.088
  Evaporation Loss .........         0.000         0.000
  Exfiltration Loss ........         0.000         0.000
  Initial Stored Volume ....         0.000         0.000
  Final Stored Volume ......         0.695         6.948
  Continuity Error (%) .....         6.309
  
  
  *************************
  Highest Continuity Errors
  *************************
  Node T2 (17.46%)
  Node T5 (15.37%)
  Node T3 (14.23%)
  Node T4 (9.72%)
  Node T6 (8.10%)
  
  
  ***************************
  Time-Step Critical Elements
  ***************************
  None
  
  
  ********************************
  Highest Flow Instability Indexes
  ********************************
  All links are stable.
  
  
  *************************
  Routing Time Step Summary
  *************************
  Minimum Time Step           :     4.50 sec
  Average Time Step           :     5.00 sec
  Maximum Time Step           :     5.00 sec
  Percent in Steady State     :     0.00
  Average Iterations per Step :     2.15
  Percent Not Converging      :     0.40
  
  
  ***************************
  Subcatchment Runoff Summary
  ***************************
  
  ------------------------------------------------------------------------------------------------------------------------------
                            Total      Total      Total      Total     Imperv       Perv      Total       Total     Peak  Runoff
                           Precip      Runon       Evap      Infil     Runoff     Runoff     Runoff      Runoff   Runoff   Coeff
  Subcatchment                 mm         mm         mm         mm         mm         mm         mm    10^6 ltr      CMS
  ------------------------------------------------------------------------------------------------------------------------------
  SC01                      13.77       0.00       0.00       0.00      13.70       0.00      13.70        4.52     1.18   0.995
  SC02                      15.04       0.00       0.00       0.00      14.96       0.00      14.96        3.40     0.69   0.995
  SC03                      13.20       0.00       0.00       0.00      13.16       0.00      13.16        2.37     0.58   0.997
  SC04                      15.04       0.00       0.00       0.00      14.89       0.00      14.89        1.03     0.17   0.990
  SC05                      13.77       0.00       0.00       0.00      13.69       0.00      13.69        2.14     0.54   0.994
  SC06                       9.15       0.00       0.00       0.00       8.94       0.00       8.94        2.91     0.35   0.977
  SC07                      15.04       0.00       0.00       0.00      14.89       0.00      14.89        0.71     0.12   0.990
  SC08                      13.20       0.00       0.00       0.00      13.11       0.00      13.11        3.67     0.56   0.993
  SC09                       9.15       0.00       0.00       0.00       9.02       0.00       9.02        0.62     0.09   0.985
  SC010                     13.77       0.00       0.00       0.00      13.67       0.00      13.67        1.61     0.37   0.993
  
  
  ******************
  Node Depth Summary
  ******************
  
  ---------------------------------------------------------------------------------
                                 Average  Maximum  Maximum  Time of Max    Reported
                                   Depth    Depth      HGL   Occurrence   Max Depth
  Node                 Type       Meters   Meters   Meters  days hr:min      Meters
  ---------------------------------------------------------------------------------
  J1                   JUNCTION     0.06     0.24    34.24     0  14:51        0.24
  J3                   JUNCTION     0.04     0.12    18.12     0  16:47        0.12
  CSO7                 JUNCTION     0.11     1.20    35.20     0  14:15        1.20
  J5                   JUNCTION     0.05     0.16    32.16     0  14:42        0.16
  CSO9                 JUNCTION     0.08     1.09    41.09     0  15:31        1.02
  J8                   JUNCTION     0.08     0.22    36.22     0  15:32        0.22
  CSO8                 JUNCTION     0.12     2.00    34.00     0  13:50        2.00
  J10                  JUNCTION     0.07     0.28    29.28     0  13:53        0.28
  J13                  JUNCTION     0.05     0.21    29.21     0  14:21        0.21
  J15                  JUNCTION     0.11     0.36    15.36     0  14:53        0.36
  J16                  JUNCTION     0.05     0.25    30.25     0  14:51        0.25
  CSO10                JUNCTION     0.10     1.00    31.00     0  14:06        1.00
  J12                  JUNCTION     0.37     1.03    27.03     0  15:44        1.03
  J4                   JUNCTION     0.11     1.42    34.42     0  14:16        0.76
  J6                   JUNCTION     0.02     0.07    25.07     0  16:33        0.07
  J2                   JUNCTION     0.00     0.00    25.00     0  00:00        0.00
  J19                  JUNCTION     0.10     0.17     8.17     0  14:52        0.17
  J9                   JUNCTION     0.04     0.11    29.11     0  17:42        0.11
  J14                  JUNCTION     0.05     0.16    20.16     0  15:41        0.16
  J17                  JUNCTION     0.03     0.08    20.08     0  16:45        0.08
  J7                   JUNCTION     0.06     0.18    39.18     0  15:32        0.18
  J11                  JUNCTION     0.07     0.29    31.29     0  14:03        0.29
  J18                  JUNCTION     0.04     0.16    29.16     0  15:02        0.16
  Out_to_WWTP          OUTFALL      0.09     0.17     6.17     0  18:10        0.17
  T5                   STORAGE      2.90     5.00    32.00     0  14:06        5.00
  T4                   STORAGE      2.77     5.00    32.00     0  14:17        5.00
  T6                   STORAGE      3.38     5.00    36.00     0  11:54        5.00
  T3                   STORAGE      2.35     5.00    27.00     0  15:27        5.00
  T2                   STORAGE      2.55     5.00    26.00     0  14:31        5.00
  T1                   STORAGE      1.73     5.00    15.00     0  14:50        5.00
  
  
  *******************
  Node Inflow Summary
  *******************
  
  -------------------------------------------------------------------------------------------------
                                  Maximum  Maximum                  Lateral       Total        Flow
                                  Lateral    Total  Time of Max      Inflow      Inflow     Balance
                                   Inflow   Inflow   Occurrence      Volume      Volume       Error
  Node                 Type           CMS      CMS  days hr:min    10^6 ltr    10^6 ltr     Percent
  -------------------------------------------------------------------------------------------------
  J1                   JUNCTION     0.558    0.558     0  14:51        3.23        3.23      -0.018
  J3                   JUNCTION     0.000    0.152     0  15:43           0        4.31       0.755
  CSO7                 JUNCTION     0.125    0.125     0  14:41        1.27        1.27       0.014
  J5                   JUNCTION     0.171    0.243     0  14:41        1.28        2.48      -0.002
  CSO9                 JUNCTION     0.092    0.092     0  15:31           1           1      -0.005
  J8                   JUNCTION     0.377    0.456     0  15:31        4.74        5.75      -0.002
  CSO8                 JUNCTION     0.573    0.573     0  14:01        4.12        4.12      -0.030
  J10                  JUNCTION     0.599    0.896     0  14:01        3.12        7.22      -0.127
  J13                  JUNCTION     0.704    0.704     0  14:16        4.31        4.31      -0.085
  J15                  JUNCTION     0.000    1.304     0  14:51           0        12.6       0.540
  J16                  JUNCTION     1.197    1.197     0  14:51         5.6         5.6      -0.074
  CSO10                JUNCTION     0.378    0.378     0  14:51        1.88        1.88      -0.017
  J12                  JUNCTION     0.000    0.841     0  13:54           0        9.24       4.243
  J4                   JUNCTION     0.000    0.081     0  14:15           0        1.21       0.073
  J6                   JUNCTION     0.000    0.028     0  15:40           0       0.774       0.419
  J2                   JUNCTION     0.000    0.000     0  00:00           0           0       0.000 ltr
  J19                  JUNCTION     0.000    0.271     0  14:51           0        9.59       0.105
  J9                   JUNCTION     0.000    0.075     0  15:40           0        2.04       1.367
  J14                  JUNCTION     0.000    0.124     0  15:40           0        3.55       0.185
  J17                  JUNCTION     0.000    0.033     0  15:40           0       0.935       0.753
  J7                   JUNCTION     0.000    0.092     0  15:31           0           1       0.113
  J11                  JUNCTION     0.000    0.485     0  14:03           0         4.1       0.053
  J18                  JUNCTION     0.000    0.202     0  15:02           0         1.8      -0.036
  Out_to_WWTP          OUTFALL      0.000    0.271     0  14:52           0        9.58       0.000
  T5                   STORAGE      0.000    0.518     0  14:51           0        3.23      18.167
  T4                   STORAGE      0.000    0.233     0  14:42           0        2.48      10.762
  T6                   STORAGE      0.000    0.439     0  15:32           0        5.75       8.814
  T3                   STORAGE      0.000    0.888     0  15:47           0        8.87      16.592
  T2                   STORAGE      0.000    0.642     0  14:21           0        4.32      21.160
  T1                   STORAGE      0.000    1.142     0  14:53           0        12.5       3.864
  
  
  **********************
  Node Surcharge Summary
  **********************
  
  Surcharging occurs when water rises above the top of the highest conduit.
  ---------------------------------------------------------------------
                                               Max. Height   Min. Depth
                                   Hours       Above Crown    Below Rim
  Node                 Type      Surcharged         Meters       Meters
  ---------------------------------------------------------------------
  CSO7                 JUNCTION        0.86          0.945        0.000
  CSO9                 JUNCTION        0.12          0.776        0.906
  CSO8                 JUNCTION        0.93          1.547        0.000
  CSO10                JUNCTION        0.52          0.560        0.000
  J4                   JUNCTION        0.80          1.116        0.584
  
  
  *********************
  Node Flooding Summary
  *********************
  
  Flooding refers to all water that overflows a node, whether it ponds or not.
  --------------------------------------------------------------------------
                                                             Total   Maximum
                                 Maximum   Time of Max       Flood    Ponded
                        Hours       Rate    Occurrence      Volume     Depth
  Node                 Flooded       CMS   days hr:min    10^6 ltr    Meters
  --------------------------------------------------------------------------
  CSO7                    0.68     0.053      0  14:41       0.064     0.000
  CSO8                    0.11     0.093      0  13:51       0.015     0.000
  CSO10                   0.34     0.176      0  14:51       0.080     0.000
  T5                      9.57     0.518      0  14:51       2.233     0.000
  T4                      3.77     0.233      0  14:42       1.141     0.000
  T6                      6.37     0.421      0  15:32       2.924     0.000
  T3                      2.42     0.764      0  15:47       1.687     0.000
  T2                      3.49     0.617      0  14:41       1.843     0.000
  T1                      3.13     0.871      0  14:53       2.101     0.000
  
  
  **********************
  Storage Volume Summary
  **********************
  
  --------------------------------------------------------------------------------------------------
                         Average     Avg  Evap Exfil       Maximum     Max    Time of Max    Maximum
                          Volume    Pcnt  Pcnt  Pcnt        Volume    Pcnt     Occurrence    Outflow
  Storage Unit           1000 m3    Full  Loss  Loss       1000 m3    Full    days hr:min        CMS
  --------------------------------------------------------------------------------------------------
  T5                       0.290      58     0     0         0.500     100       0  14:06      0.000
  T4                       0.277      55     0     0         0.500     100       0  14:17      0.028
  T6                       0.405      68     0     0         0.600     100       0  11:54      0.075
  T3                       1.224      47     0     0         2.600     100       0  15:27      0.124
  T2                       0.510      51     0     0         1.000     100       0  14:31      0.033
  T1                       0.242      35     0     0         0.700     100       0  14:50      0.271
  
  
  ***********************
  Outfall Loading Summary
  ***********************
  
  -----------------------------------------------------------
                         Flow       Avg       Max       Total
                         Freq      Flow      Flow      Volume
  Outfall Node           Pcnt       CMS       CMS    10^6 ltr
  -----------------------------------------------------------
  Out_to_WWTP           99.43     0.113     0.271       9.584
  -----------------------------------------------------------
  System                99.43     0.113     0.271       9.584
  
  
  ********************
  Link Flow Summary
  ********************
  
  -----------------------------------------------------------------------------
                                 Maximum  Time of Max   Maximum    Max/    Max/
                                  |Flow|   Occurrence   |Veloc|    Full    Full
  Link                 Type          CMS  days hr:min     m/sec    Flow   Depth
  -----------------------------------------------------------------------------
  C1                   CONDUIT     0.000     0  00:00      0.00    0.00    0.06
  C6                   CONDUIT     0.072     0  14:42      1.28    1.14    0.77
  C2                   CONDUIT     0.028     0  16:33      1.07    0.03    0.16
  C9                   CONDUIT     0.083     0  15:32      1.14    0.28    0.40
  C16                  CONDUIT     0.471     0  14:03      1.74    0.05    0.14
  C3                   CONDUIT     0.125     0  15:42      2.07    0.05    0.14
  C19                  CONDUIT     0.033     0  16:45      0.65    0.01    0.18
  C11                  CONDUIT     0.152     0  16:47      1.59    0.01    0.09
  C20                  CONDUIT     1.102     0  14:51      3.80    0.03    0.15
  C22                  CONDUIT     0.202     0  15:02      1.67    0.09    0.33
  C12                  CONDUIT     0.075     0  17:42      0.17    0.01    0.28
  C17                  CONDUIT     0.841     0  13:54      3.25    0.04    0.32
  C10                  CONDUIT     0.439     0  15:32      0.93    0.05    0.57
  C13                  CONDUIT     0.888     0  15:47      1.65    0.05    0.76
  C18                  CONDUIT     0.642     0  14:21      2.19    0.02    0.55
  C23                  CONDUIT     1.142     0  14:53      1.46    0.13    0.62
  C4                   CONDUIT     0.518     0  14:51      1.17    0.13    0.62
  C7                   CONDUIT     0.233     0  14:42      1.27    0.06    0.58
  C14                  CONDUIT     0.271     0  14:52      2.08    0.02    0.09
  C5                   CONDUIT     0.081     0  14:15      1.58    1.39    1.00
  C8                   CONDUIT     0.092     0  15:31      1.39    1.16    0.79
  C15                  CONDUIT     0.485     0  14:03      3.57    1.54    0.82
  C21                  CONDUIT     0.202     0  15:02      1.86    1.16    0.69
  V4                   ORIFICE     0.028     0  15:40                      0.35
  V5                   ORIFICE     0.000     0  00:00                      0.00
  V1                   ORIFICE     0.271     0  14:51                      1.00
  V6                   ORIFICE     0.075     0  15:40                      0.43
  V3                   ORIFICE     0.124     0  15:40                      0.65
  V2                   ORIFICE     0.033     0  15:40                      0.24
  
  
  ***************************
  Flow Classification Summary
  ***************************
  
  -------------------------------------------------------------------------------------
                      Adjusted    ---------- Fraction of Time in Flow Class ---------- 
                       /Actual         Up    Down  Sub   Sup   Up    Down  Norm  Inlet 
  Conduit               Length    Dry  Dry   Dry   Crit  Crit  Crit  Crit  Ltd   Ctrl  
  -------------------------------------------------------------------------------------
  C1                      1.00   0.66  0.34  0.00  0.00  0.00  0.00  0.00  0.00  0.00
  C6                      1.00   0.00  0.00  0.00  0.05  0.95  0.00  0.00  0.00  0.00
  C2                      1.00   0.65  0.00  0.00  0.00  0.34  0.00  0.00  0.34  0.00
  C9                      1.00   0.00  0.00  0.00  1.00  0.00  0.00  0.00  1.00  0.00
  C16                     1.00   0.00  0.02  0.00  0.66  0.31  0.00  0.00  0.63  0.00
  C3                      1.00   0.65  0.00  0.00  0.00  0.34  0.00  0.00  0.00  0.00
  C19                     1.00   0.00  0.66  0.00  0.34  0.00  0.00  0.00  0.34  0.00
  C11                     1.00   0.00  0.66  0.00  0.02  0.32  0.00  0.00  0.34  0.00
  C20                     1.00   0.00  0.00  0.00  0.25  0.75  0.00  0.00  0.99  0.00
  C22                     1.00   0.00  0.00  0.00  0.82  0.17  0.00  0.00  1.00  0.00
  C12                     1.00   0.00  0.66  0.00  0.34  0.00  0.00  0.00  0.34  0.00
  C17                     1.00   0.00  0.00  0.00  0.37  0.63  0.00  0.00  0.93  0.00
  C10                     1.00   0.00  0.00  0.00  0.98  0.02  0.00  0.00  0.98  0.00
  C13                     1.00   0.00  0.00  0.00  0.95  0.05  0.00  0.00  0.57  0.00
  C18                     1.00   0.00  0.00  0.00  0.97  0.03  0.00  0.00  0.98  0.00
  C23                     1.00   0.00  0.00  0.00  0.53  0.47  0.00  0.00  0.96  0.00
  C4                      1.00   0.00  0.00  0.00  0.97  0.03  0.00  0.00  0.99  0.00
  C7                      1.00   0.00  0.00  0.00  0.97  0.03  0.00  0.00  0.97  0.00
  C14                     1.00   0.00  0.00  0.00  0.00  1.00  0.00  0.00  0.38  0.00
  C5                      1.00   0.00  0.00  0.00  0.94  0.06  0.00  0.00  0.94  0.00
  C8                      1.00   0.00  0.00  0.00  0.14  0.86  0.00  0.00  0.00  0.00
  C15                     1.00   0.02  0.00  0.00  0.00  0.98  0.00  0.00  0.00  0.00
  C21                     1.00   0.00  0.00  0.00  0.00  1.00  0.00  0.00  0.00  0.00
  
  
  *************************
  Conduit Surcharge Summary
  *************************
  
  ----------------------------------------------------------------------------
                                                           Hours        Hours 
                         --------- Hours Full --------   Above Full   Capacity
  Conduit                Both Ends  Upstream  Dnstream   Normal Flow   Limited
  ----------------------------------------------------------------------------
  C6                          0.01      0.80      0.01      0.70         0.01
  C10                         0.01      0.01     19.41      0.01         0.01
  C13                         0.01      0.01      9.76      0.01         0.01
  C18                         0.01      0.01     10.80      0.01         0.01
  C23                         0.01      0.01      9.51      0.01         0.01
  C4                          0.01      0.01     17.19      0.01         0.01
  C7                          0.01      0.01     17.96      0.01         0.01
  C5                          0.83      0.86      0.95      1.02         0.81
  C8                          0.01      0.12      0.01      0.11         0.01
  C15                         0.01      0.93      0.01      1.20         0.01
  C21                         0.01      0.52      0.01      0.46         0.01
  

  Analysis begun on:  Tue Sep 21 10:23:27 2021
  Analysis ended on:  Tue Sep 21 10:23:28 2021
  Total elapsed time: 00:00:01