
  EPA STORM WATER MANAGEMENT MODEL - VERSION 5.1 (Build 5.3.0.dev0)
  --------------------------------------------------------------

  WARNING 04: minimum elevation drop used for Conduit WS02004404WS02004405
  WARNING 03: negative offset ignored for Link YS02001904YS02001907
  
  *********************************************************
  NOTE: The summary statistics displayed in this report are
  based on results found at every computational time step,  
  not just on results from each reporting time step.
  *********************************************************
  
  ****************
  Analysis Options
  ****************
  Flow Units ............... LPS
  Process Models:
    Rainfall/Runoff ........ YES
    RDII ................... NO
    Snowmelt ............... NO
    Groundwater ............ NO
    Flow Routing ........... YES
    Ponding Allowed ........ NO
    Water Quality .......... YES
  Infiltration Method ...... HORTON
  Flow Routing Method ...... DYNWAVE
  Surcharge Method ......... EXTRAN
  Starting Date ............ 08/28/2015 08:00:00
  Ending Date .............. 08/28/2015 15:50:00
  Antecedent Dry Days ...... 8.0
  Report Time Step ......... 00:01:00
  Wet Time Step ............ 00:01:00
  Dry Time Step ............ 00:01:00
  Routing Time Step ........ 5.00 sec
  Variable Time Step ....... YES
  Maximum Trials ........... 8
  Number of Threads ........ 4
  Head Tolerance ........... 0.001500 m
  
  
  **************************        Volume         Depth
  Runoff Quantity Continuity     hectare-m            mm
  **************************     ---------       -------
  Total Precipitation ......         6.144        13.452
  Evaporation Loss .........         0.000         0.000
  Infiltration Loss ........         1.064         2.328
  Surface Runoff ...........         4.147         9.079
  Final Storage ............         0.935         2.047
  Continuity Error (%) .....        -0.020
  
  
  **************************           COD            SS            TN            TP         NH4-N
  Runoff Quality Continuity             kg            kg            kg            kg            kg
  **************************    ----------    ----------    ----------    ----------    ----------
  Initial Buildup ..........     41378.656     70582.865      1804.177       168.684      1032.807
  Surface Buildup ..........        21.799        40.924         2.400         0.218         1.395
  Wet Deposition ...........         0.000         0.000         0.000         0.000         0.000
  Sweeping Removal .........         0.000         0.000         0.000         0.000         0.000
  Infiltration Loss ........        97.311       184.943         1.849         0.130         0.881
  BMP Removal ..............         0.000         0.000         0.000         0.000         0.000
  Surface Runoff ...........      3769.819      7064.251        72.781         4.964        34.599
  Remaining Buildup ........     37531.916     63371.884      1731.919       163.806       998.709
  Continuity Error (%) .....         0.003         0.004         0.002         0.001         0.001
  
  
  **************************        Volume        Volume
  Flow Routing Continuity        hectare-m      10^6 ltr
  **************************     ---------     ---------
  Dry Weather Inflow .......         0.616         6.165
  Wet Weather Inflow .......         4.145        41.451
  Groundwater Inflow .......         0.000         0.000
  RDII Inflow ..............         0.000         0.000
  External Inflow ..........         0.102         1.024
  External Outflow .........         2.055        20.549
  Flooding Loss ............         2.370        23.698
  Evaporation Loss .........         0.000         0.000
  Exfiltration Loss ........         0.000         0.000
  Initial Stored Volume ....         0.076         0.761
  Final Stored Volume ......         0.653         6.534
  Continuity Error (%) .....        -2.797
  
  
  **************************           COD            SS            TN            TP         NH4-N
  Quality Routing Continuity            kg            kg            kg            kg            kg
  **************************    ----------    ----------    ----------    ----------    ----------
  Dry Weather Inflow .......      1541.201      2465.922       147.955        18.494        92.472
  Wet Weather Inflow .......      3768.972      7062.826        72.762         4.963        34.591
  Groundwater Inflow .......         0.000         0.000         0.000         0.000         0.000
  RDII Inflow ..............         0.000         0.000         0.000         0.000         0.000
  External Inflow ..........       183.418       293.469        17.608         2.201        11.005
  External Outflow .........      2429.646      4209.837       149.969        17.531        90.451
  Flooding Loss ............      2378.509      4436.941        60.872         5.307        31.974
  Exfiltration Loss ........         0.000         0.000         0.000         0.000         0.000
  Mass Reacted .............         0.000         0.000         0.000         0.000         0.000
  Initial Stored Mass ......         0.000         0.000         0.000         0.000         0.000
  Final Stored Mass ........       531.940       913.711        23.859         2.546        13.825
  Continuity Error (%) .....         2.794         2.665         1.521         1.072         1.316
  
  
  *************************
  Highest Continuity Errors
  *************************
  Node HS02004842 (13.41%)
  Node JK-storage (-13.21%)
  Node YS02001884 (10.73%)
  Node HS02004817 (2.53%)
  Node YSB1171 (2.46%)
  
  
  ***************************
  Time-Step Critical Elements
  ***************************
  Link WS02006252WS02006251 (71.45%)
  Link WS02006280WS02006229 (8.98%)
  Link WS02006238WS02006235 (4.21%)
  Link YS02001793JiankangQianchi (3.49%)
  Link WS02004404WS02004405 (2.00%)
  
  
  ********************************
  Highest Flow Instability Indexes
  ********************************
  Link WS02006113WS02006111 (37)
  Link YS02163301YS02001633 (32)
  Link YS02001629YS02163301 (32)
  Link YS02163601YS02164001 (32)
  Link YS02001619YS02001622 (31)
  
  
  *************************
  Routing Time Step Summary
  *************************
  Minimum Time Step           :     0.50 sec
  Average Time Step           :     1.07 sec
  Maximum Time Step           :     5.00 sec
  Percent in Steady State     :    -0.00
  Average Iterations per Step :     4.20
  Percent Not Converging      :    17.99
  
  
  ***************************
  Subcatchment Runoff Summary
  ***************************
  
  ------------------------------------------------------------------------------------------------------------------------------
                            Total      Total      Total      Total     Imperv       Perv      Total       Total     Peak  Runoff
                           Precip      Runon       Evap      Infil     Runoff     Runoff     Runoff      Runoff   Runoff   Coeff
  Subcatchment                 mm         mm         mm         mm         mm         mm         mm    10^6 ltr      LPS
  ------------------------------------------------------------------------------------------------------------------------------
  sub0                      13.45       0.00       0.00       0.63      12.47       0.31      12.77        0.01     3.75   0.950
  sub1                      13.45       0.00       0.00       1.12      11.88       0.36      12.24        0.08    25.66   0.910
  sub2                      13.45       0.00       0.00       4.44       8.39       0.53       8.92        0.08    25.29   0.663
  sub3                      13.45       0.00       0.00       4.56       8.35       0.42       8.77        0.20    55.75   0.652
  sub4                      13.45       0.00       0.00       1.22      11.71       0.26      11.97        0.25    65.52   0.890
  sub5                      13.45       0.00       0.00       0.68      12.41       0.26      12.67        0.14    44.76   0.942
  sub7                      13.45       0.00       0.00       0.86      12.18       0.35      12.53        0.04    14.26   0.931
  sub8                      13.45       0.00       0.00       0.87      12.17       0.34      12.50        0.08    26.26   0.930
  sub9                      13.45       0.00       0.00       0.88      12.17       0.33      12.50        0.06    19.64   0.929
  sub10                     13.45       0.00       0.00       0.78      12.29       0.29      12.58        0.14    44.00   0.935
  sub11                     13.45       0.00       0.00       0.77      12.30       0.31      12.61        0.15    48.45   0.938
  sub12                     13.45       0.00       0.00       1.25      11.66       0.50      12.16        0.11    38.10   0.904
  sub14                     13.45       0.00       0.00       0.88      12.16       0.33      12.49        0.12    38.67   0.929
  sub15                     13.45       0.00       0.00       3.37       9.35       0.66      10.01        0.17    57.01   0.744
  sub16                     13.45       0.00       0.00       3.56       8.97       0.88       9.85        0.10    37.63   0.732
  sub17                     13.45       0.00       0.00       3.47       9.10       0.84       9.94        0.09    30.67   0.739
  sub22                     13.45       0.00       0.00       4.98       7.63       0.81       8.43        0.53   184.54   0.627
  sub23                     13.45       0.00       0.00       4.17       8.43       0.81       9.24        0.44   154.22   0.687
  sub60                     13.45       0.00       0.00       1.53       9.85       0.09       9.93        3.01   438.14   0.738
  sub61                     13.45       0.00       0.00       2.16       9.95       0.12      10.07        3.11   536.45   0.749
  sub62                     13.45       0.00       0.00       0.98      10.84       0.10      10.94        3.36   552.35   0.813
  sub63                     13.45       0.00       0.00       3.77       8.69       0.14       8.83        2.67   492.63   0.656
  sub64                     13.45       0.00       0.00       1.93       9.45       0.09       9.54        2.90   416.72   0.709
  sub65                     13.45       0.00       0.00       1.67       9.61       0.08       9.70        2.98   423.09   0.721
  sub66                     13.45       0.00       0.00       3.81       8.10       0.09       8.18        2.51   380.66   0.608
  sub67                     13.45       0.00       0.00       0.95      11.38       0.13      11.51        3.55   679.52   0.856
  sub68                     13.45       0.00       0.00       1.75      10.45       0.13      10.59        3.26   586.26   0.787
  sub69                     13.45       0.00       0.00       1.83      10.79       0.19      10.98        2.57   544.72   0.816
  sub70                     13.45      11.20       0.00       7.51      14.65       0.88      15.52        3.55   494.81   0.630
  sub71                     13.45       0.00       0.00       0.99      10.58       0.09      10.67        2.52   389.24   0.793
  sub72                     13.45       0.00       0.00       0.89       8.56       0.05       8.61        1.75   189.18   0.640
  1                         13.45      15.11       0.00       1.37      16.56       4.63      21.19        4.98   484.42   0.742
  2                         13.45       0.00       0.00       3.02       3.21       1.96       5.17        2.07   340.45   0.384
  
  
  ****************************
  Subcatchment Washoff Summary
  ****************************
  
  ------------------------------------------------------------------------------------------
                                 COD            SS            TN            TP         NH4-N
  Subcatchment                    kg            kg            kg            kg            kg
  ------------------------------------------------------------------------------------------
  sub0                         2.670         5.197         0.046         0.004         0.022
  sub1                        11.241        22.423         0.210         0.015         0.101
  sub2                         6.894        13.384         0.145         0.010         0.067
  sub3                        16.924        32.573         0.350         0.024         0.161
  sub4                        25.772        51.904         0.510         0.031         0.245
  sub5                        25.778        50.682         0.460         0.035         0.223
  sub7                         5.751        11.638         0.108         0.007         0.052
  sub8                         8.581        17.755         0.171         0.010         0.082
  sub9                         7.353        15.005         0.142         0.009         0.068
  sub10                       21.202        42.223         0.389         0.028         0.188
  sub11                       20.657        41.614         0.386         0.026         0.187
  sub12                       17.724        35.094         0.321         0.024         0.155
  sub14                       15.732        31.800         0.298         0.020         0.144
  sub15                       20.231        39.321         0.389         0.028         0.182
  sub16                       13.129        25.518         0.249         0.019         0.117
  sub17                       12.049        23.208         0.222         0.017         0.105
  sub22                       62.582       119.432         1.186         0.090         0.554
  sub23                       36.683        72.439         0.776         0.051         0.357
  sub60                      243.520       456.962         4.842         0.298         2.321
  sub61                      302.151       564.434         5.627         0.386         2.710
  sub62                      313.722       596.076         6.119         0.388         2.938
  sub63                      223.275       410.850         4.468         0.314         2.075
  sub64                      305.877       553.773         5.626         0.410         2.687
  sub65                      313.037       569.066         5.795         0.415         2.772
  sub66                      176.068       321.340         3.608         0.236         1.687
  sub67                      466.222       877.505         8.365         0.616         4.045
  sub68                      332.037       626.413         6.347         0.429         3.034
  sub69                      298.258       568.561         5.590         0.393         2.674
  sub70                      502.897       962.303        10.037         0.699         4.710
  sub71                      206.745       396.330         4.242         0.246         2.030
  sub72                      164.385       293.107         3.069         0.210         1.476
  1                          349.075       671.606         7.102         0.495         3.297
  2                           42.749        75.577         1.214         0.073         0.518
  ------------------------------------------------------------------------------------------
  System                    4570.974      8595.115        88.408         6.057        41.983
  
  
  ******************
  Node Depth Summary
  ******************
  
  ---------------------------------------------------------------------------------
                                 Average  Maximum  Maximum  Time of Max    Reported
                                   Depth    Depth      HGL   Occurrence   Max Depth
  Node                 Type       Meters   Meters   Meters  days hr:min      Meters
  ---------------------------------------------------------------------------------
  WS02001211           JUNCTION     0.77     0.85     5.69     0  03:07        0.85
  WS02001212           JUNCTION     0.48     0.58     5.64     0  03:06        0.58
  WS02001213           JUNCTION     0.73     0.85     5.62     0  03:06        0.85
  WS02003069           JUNCTION     0.53     0.72     5.30     0  03:05        0.72
  WS02003072           JUNCTION     0.59     0.76     5.13     0  03:06        0.76
  WS02003073           JUNCTION     0.36     0.48     4.54     0  03:06        0.48
  WS02003060           JUNCTION     0.47     0.63     5.57     0  03:05        0.63
  WS02003066           JUNCTION     0.26     0.39     5.94     0  03:04        0.39
  WS02003059           JUNCTION     0.78     0.91     5.60     0  03:05        0.91
  WS02003067           JUNCTION     0.63     0.82     6.14     0  03:03        0.82
  WS02004401           JUNCTION     0.76     1.24     7.24     0  03:01        1.23
  WS02004402           JUNCTION     0.78     1.23     7.19     0  03:02        1.22
  WS02004403           JUNCTION     0.80     1.20     7.13     0  03:02        1.19
  WS02004404           JUNCTION     0.87     1.25     7.10     0  03:02        1.25
  WS02004406           JUNCTION     0.87     1.16     6.99     0  03:02        1.16
  WS02004409           JUNCTION     0.57     0.96     6.73     0  03:03        0.96
  WS02004410           JUNCTION     0.59     0.95     6.67     0  03:03        0.95
  WS02004411           JUNCTION     0.60     0.93     6.61     0  03:03        0.93
  WS02004412           JUNCTION     0.61     0.90     6.54     0  03:03        0.90
  WS02004413           JUNCTION     0.77     1.02     6.49     0  03:03        1.02
  WS02004405           JUNCTION     0.87     1.22     7.07     0  03:02        1.20
  WS02006109           JUNCTION     0.85     1.66     8.28     0  03:02        1.64
  WS02006110           JUNCTION     0.83     1.45     8.03     0  03:02        1.44
  WS02006111           JUNCTION     0.26     0.88     7.59     0  03:02        0.88
  WS02006112           JUNCTION     0.94     1.56     7.44     0  03:02        1.55
  WS02006113           JUNCTION     0.39     0.92     7.82     0  03:02        0.92
  WS02006115           JUNCTION     0.65     1.22     7.36     0  03:02        1.21
  WS02006116           JUNCTION     0.73     1.26     7.30     0  03:01        1.26
  WS02006230           JUNCTION     0.89     1.88     8.62     0  03:02        1.87
  WS02006231           JUNCTION     0.62     1.52     8.65     0  03:02        1.51
  WS02006232           JUNCTION     0.77     1.63     8.67     0  03:02        1.61
  WS02006234           JUNCTION     0.72     1.53     8.68     0  03:02        1.52
  WS02006235           JUNCTION     0.76     1.54     8.70     0  03:02        1.53
  WS02006238           JUNCTION     0.79     1.56     8.70     0  03:02        1.54
  WS02006240           JUNCTION     0.70     1.40     8.70     0  03:02        1.40
  WS02006242           JUNCTION     0.75     1.43     8.70     0  03:02        1.42
  WS02006243           JUNCTION     0.64     1.27     8.69     0  03:03        1.27
  WS02006245           JUNCTION     0.61     1.21     8.70     0  03:03        1.20
  WS02006247           JUNCTION     0.62     1.20     8.70     0  03:03        1.19
  WS02006248           JUNCTION     0.56     1.10     8.69     0  02:54        1.10
  WS02006249           JUNCTION     0.57     1.09     8.69     0  02:54        1.09
  WS02006239           JUNCTION     0.75     1.49     8.70     0  03:02        1.48
  WS02006251           JUNCTION     0.54     1.40     9.07     0  02:54        1.20
  WS02006252           JUNCTION     0.34     0.87     9.11     0  02:54        0.75
  WS02006253           JUNCTION     0.57     1.46     9.10     0  02:54        1.23
  WS02006256           JUNCTION     1.83     2.35     9.28     0  00:00        2.35
  WS02004138           JUNCTION     0.19     0.20     7.45     0  00:00        0.19
  WS02004139           JUNCTION     0.72     0.79     5.70     0  03:07        0.79
  WS02004407           JUNCTION     0.25     0.40     6.71     0  03:03        0.40
  WS02006228           JUNCTION     0.87     1.83     8.48     0  03:02        1.82
  WS02006229           JUNCTION     0.86     1.90     8.59     0  03:02        1.89
  WS02006280           JUNCTION     0.07     0.30     8.57     0  03:05        0.30
  WS02006284           JUNCTION     0.37     0.65     9.04     0  03:02        0.64
  WS02006287           JUNCTION     0.09     0.39     9.34     0  03:02        0.39
  WSF200               JUNCTION     0.25     0.44     5.67     0  03:04        0.44
  HS02004901           JUNCTION     0.12     0.38    10.20     0  03:01        0.37
  HS02004881           JUNCTION     0.01     0.05     9.08     0  03:01        0.05
  HS02004876           JUNCTION     0.04     0.16     9.19     0  03:01        0.16
  HS02004870           JUNCTION     0.01     0.09     9.38     0  03:01        0.09
  HS02004862           JUNCTION     0.02     0.11     9.49     0  03:01        0.11
  HS02004856           JUNCTION     0.08     0.15     9.58     0  03:01        0.15
  HS02004852           JUNCTION     0.01     0.07     9.59     0  03:02        0.07
  HS02004848           JUNCTION     0.01     0.07     9.67     0  03:01        0.07
  HS02004842           JUNCTION     0.33     0.40     9.67     0  03:01        0.40
  HS02004837           JUNCTION     0.03     0.09     9.67     0  03:01        0.09
  HS02004830           JUNCTION     0.04     0.10     9.57     0  03:02        0.10
  HS02004824           JUNCTION     0.02     0.13     9.53     0  03:02        0.13
  HS02004817           JUNCTION     0.44     0.69     9.54     0  03:02        0.69
  HS02004807           JUNCTION     0.13     0.36     9.53     0  03:02        0.36
  HS02004802           JUNCTION     0.16     0.39     9.52     0  03:02        0.39
  HS02004799           JUNCTION     0.12     0.46     9.68     0  03:01        0.46
  HS02004792           JUNCTION     0.03     0.22     9.74     0  03:01        0.21
  HS02004788           JUNCTION     0.02     0.16    10.05     0  03:02        0.16
  HS02004785           JUNCTION     0.04     0.25    10.15     0  03:02        0.25
  HS02004777           JUNCTION     0.15     0.39    10.19     0  03:01        0.39
  HS02004770           JUNCTION     0.12     0.37    10.20     0  03:01        0.36
  HS02004480           JUNCTION     0.08     0.38     9.62     0  03:01        0.38
  HS02004479           JUNCTION     0.11     0.42     9.62     0  03:01        0.42
  HS02004478           JUNCTION     0.06     0.28     9.50     0  03:01        0.28
  YS02001745           JUNCTION     0.74     0.94     8.46     0  03:00        0.94
  YS02001748           JUNCTION     1.15     1.63     8.70     0  02:33        1.37
  YS02001751           JUNCTION     1.33     1.57     8.45     0  03:01        1.56
  YS02001754           JUNCTION     1.58     1.84     8.45     0  02:54        1.82
  YS02001762           JUNCTION     1.78     2.06     8.46     0  02:54        2.03
  YS02001765           JUNCTION     1.74     2.01     8.46     0  02:54        1.98
  YS02001767           JUNCTION     1.70     1.96     8.45     0  02:54        1.94
  YS02001770           JUNCTION     1.70     1.93     8.43     0  03:00        1.93
  YS02001774           JUNCTION     1.76     1.99     8.41     0  03:01        1.98
  YS02001779           JUNCTION     1.51     1.68     8.37     0  02:40        1.68
  YS02001882           JUNCTION     0.55     1.63     8.35     0  03:00        1.62
  YS02001884           JUNCTION     0.65     1.74     8.35     0  03:00        1.73
  YS02001759           JUNCTION     1.82     2.10     8.47     0  02:54        2.07
  YS02001887           JUNCTION     0.72     1.81     8.35     0  03:00        1.81
  YS02001890           JUNCTION     0.75     1.81     8.32     0  02:49        1.81
  YS02001898           JUNCTION     0.52     1.56     8.30     0  02:54        1.56
  YS02001901           JUNCTION     0.64     1.68     8.29     0  02:55        1.67
  YS02001904           JUNCTION     0.62     1.64     8.27     0  02:54        1.63
  YS02001907           JUNCTION     0.95     1.96     8.25     0  02:45        1.96
  YS02001910           JUNCTION     0.74     1.78     8.29     0  02:46        1.77
  YS02001915           JUNCTION     0.54     1.60     8.32     0  02:46        1.58
  YS02001918           JUNCTION     0.28     1.29     8.35     0  02:46        1.24
  YS02001619           JUNCTION     1.29     1.56     8.49     0  02:33        1.48
  YS02001629           JUNCTION     1.65     1.85     8.40     0  02:33        1.84
  YS02001641           JUNCTION     1.75     1.94     8.37     0  04:00        1.93
  YS02001644           JUNCTION     1.75     1.92     8.35     0  02:39        1.92
  YS02001652           JUNCTION     1.60     2.09     8.68     0  02:25        1.99
  YS02001655           JUNCTION     1.36     2.20     9.05     0  02:25        1.88
  YS02001920           JUNCTION     0.38     1.37     8.37     0  02:46        1.31
  YS02001923           JUNCTION     0.22     1.13     8.39     0  02:46        1.07
  YS02001926           JUNCTION     0.28     0.95     8.39     0  02:46        0.92
  YS02001929           JUNCTION     0.16     0.71     8.40     0  02:46        0.70
  YS02001658           JUNCTION     1.09     2.02     9.16     0  03:55        1.72
  YS02001661           JUNCTION     0.85     1.95     9.35     0  04:09        1.54
  YS02001664           JUNCTION     0.38     0.57     8.49     0  04:11        0.56
  YS02001622           JUNCTION     1.31     1.54     8.44     0  02:33        1.50
  YS02001633           JUNCTION     1.74     1.95     8.40     0  02:54        1.94
  YS02001649           JUNCTION     1.79     2.05     8.44     0  02:43        2.05
  YS02001757           JUNCTION     1.92     2.19     8.45     0  02:54        2.16
  YS02001895           JUNCTION     0.51     1.57     8.31     0  02:52        1.56
  YS02001625           JUNCTION     1.60     1.78     8.38     0  02:30        1.78
  YS02163301           JUNCTION     1.68     1.90     8.41     0  02:33        1.88
  YS02163601           JUNCTION     1.79     1.99     8.39     0  02:40        1.98
  YS02164001           JUNCTION     1.73     1.92     8.38     0  02:54        1.91
  YS02001647           JUNCTION     1.58     1.81     8.42     0  02:54        1.79
  YSB1154              JUNCTION     0.26     0.57     9.62     0  03:01        0.57
  YSB6556              JUNCTION     0.15     0.45     9.62     0  03:02        0.45
  YSB1174              JUNCTION     0.21     0.52     9.62     0  03:01        0.51
  YSB1171              JUNCTION     0.41     0.72     9.62     0  03:01        0.72
  YS02006553           JUNCTION     0.95     1.97     8.25     0  03:05        1.96
  YS02006561           JUNCTION     0.31     1.08     7.74     0  02:45        1.08
  YS02006556           JUNCTION     0.92     1.93     8.25     0  03:00        1.93
  YS02006558           JUNCTION     0.96     1.98     8.24     0  02:59        1.97
  YS02001783           JUNCTION     0.53     1.54     7.69     0  02:28        1.46
  YS02001784           JUNCTION     0.55     1.42     7.49     0  02:28        1.40
  YS02001786           JUNCTION     0.49     1.36     7.39     0  02:28        1.25
  YS02001788           JUNCTION     0.42     1.18     7.15     0  02:28        1.13
  YS02001790           JUNCTION     0.55     1.96     7.60     0  02:27        1.28
  YS02001791           JUNCTION     0.51     2.29     7.76     0  04:45        1.27
  YS02001793           JUNCTION     0.72     3.24     8.07     0  04:43        1.80
  WSC                  OUTFALL      0.36     0.48     1.15     0  03:07        0.48
  JK-storage           STORAGE      2.80     5.80     6.60     0  02:28        5.80
  CC-storage           STORAGE      1.17     1.41     8.41     0  03:14        1.41
  XR-storage           STORAGE      6.76     7.72     5.72     0  02:59        7.72
  
  
  *******************
  Node Inflow Summary
  *******************
  
  -------------------------------------------------------------------------------------------------
                                  Maximum  Maximum                  Lateral       Total        Flow
                                  Lateral    Total  Time of Max      Inflow      Inflow     Balance
                                   Inflow   Inflow   Occurrence      Volume      Volume       Error
  Node                 Type           LPS      LPS  days hr:min    10^6 ltr    10^6 ltr     Percent
  -------------------------------------------------------------------------------------------------
  WS02001211           JUNCTION      7.35   390.29     0  03:16       0.207        10.1       0.405
  WS02001212           JUNCTION      0.00   393.22     0  03:16           0          10       0.246
  WS02001213           JUNCTION      0.00   395.75     0  03:16           0          10       0.291
  WS02003069           JUNCTION      0.32  1332.72     0  03:05     0.00902        20.6       0.180
  WS02003072           JUNCTION      0.00  1332.37     0  03:05           0        20.6       0.214
  WS02003073           JUNCTION      1.82  1334.26     0  03:06      0.0514        20.6       0.249
  WS02003060           JUNCTION     16.53  1332.71     0  03:04       0.466        20.7       0.168
  WS02003066           JUNCTION      0.00   938.59     0  03:04           0        10.3       0.047
  WS02003059           JUNCTION      0.00   398.67     0  03:15           0        9.99       0.410
  WS02003067           JUNCTION      0.00   938.13     0  03:04           0        10.3       0.098
  WS02004401           JUNCTION      0.00   940.13     0  03:03           0        10.5       0.206
  WS02004402           JUNCTION      0.00   939.91     0  03:02           0        10.5       0.194
  WS02004403           JUNCTION      0.00   939.83     0  03:02           0        10.5       0.177
  WS02004404           JUNCTION      0.16   940.40     0  03:02     0.00457        10.4       0.132
  WS02004406           JUNCTION      0.00   940.35     0  03:02           0        10.4       0.325
  WS02004409           JUNCTION      0.00   939.53     0  03:03           0        10.4       0.173
  WS02004410           JUNCTION      0.00   938.44     0  03:03           0        10.4       0.195
  WS02004411           JUNCTION      0.00   937.98     0  03:03           0        10.3       0.199
  WS02004412           JUNCTION      0.00   937.69     0  03:03           0        10.3       0.213
  WS02004413           JUNCTION      0.00   938.04     0  03:04           0        10.3       0.312
  WS02004405           JUNCTION      0.04   941.14     0  03:02     0.00107        10.4       0.198
  WS02006109           JUNCTION      1.23   915.55     0  03:02      0.0347        10.5       0.186
  WS02006110           JUNCTION      0.00   915.67     0  03:02           0        10.5       0.174
  WS02006111           JUNCTION      0.00   915.88     0  03:02           0        10.5       0.039
  WS02006112           JUNCTION     30.67   939.25     0  03:02      0.0853        10.6       0.287
  WS02006113           JUNCTION      0.00   915.60     0  03:02           0        10.5       0.093
  WS02006115           JUNCTION      0.00   939.36     0  03:02           0        10.5       0.196
  WS02006116           JUNCTION      0.00   939.50     0  03:02           0        10.5       0.169
  WS02006230           JUNCTION     10.28   532.45     0  07:00        0.29        8.12       0.170
  WS02006231           JUNCTION      0.00   522.30     0  07:00           0        7.83       0.110
  WS02006232           JUNCTION      0.00   522.23     0  07:00           0        7.85       0.205
  WS02006234           JUNCTION      0.00   522.51     0  07:00           0        7.86       0.093
  WS02006235           JUNCTION      0.00   523.33     0  07:00           0        7.94       0.119
  WS02006238           JUNCTION      0.00   413.31     0  06:00           0        4.36       0.156
  WS02006240           JUNCTION      0.00   412.84     0  06:00           0         4.3       0.211
  WS02006242           JUNCTION      0.00   412.69     0  06:00           0        4.29       0.236
  WS02006243           JUNCTION      0.00   413.06     0  06:00           0        4.27       0.018
  WS02006245           JUNCTION      0.00   413.26     0  06:00           0        4.27       0.141
  WS02006247           JUNCTION      0.00   413.21     0  06:00           0        4.27       0.043
  WS02006248           JUNCTION      0.00   413.30     0  06:00           0        4.26      -0.011
  WS02006249           JUNCTION      0.00   538.10     0  03:00           0        4.68       0.032
  WS02006239           JUNCTION      0.00   412.58     0  06:00           0        4.33       0.079
  WS02006251           JUNCTION      0.08   536.60     0  03:00     0.00217        4.73      -0.003
  WS02006252           JUNCTION      0.00   399.93     0  06:40           0         4.2       0.003
  WS02006253           JUNCTION      3.75   143.72     0  03:01      0.0103       0.523      -0.120
  WS02006256           JUNCTION      0.00   983.00     0  02:50           0        10.4      -0.008
  WS02004138           JUNCTION      0.00   380.00     0  00:00           0        9.92       0.064
  WS02004139           JUNCTION      0.32   395.85     0  00:00     0.00905        9.92       0.463
  WS02004407           JUNCTION      0.00   939.90     0  03:03           0        10.4       0.075
  WS02006228           JUNCTION      0.00   914.29     0  03:02           0        10.5       0.145
  WS02006229           JUNCTION      0.00   917.08     0  03:01           0        10.5       0.125
  WS02006280           JUNCTION      0.00   680.21     0  03:02           0        2.43       0.012
  WS02006284           JUNCTION      0.10   679.07     0  03:02      0.0027        2.43       0.045
  WS02006287           JUNCTION      0.00   677.70     0  03:02           0        2.43       0.032
  WSF200               JUNCTION      0.00   938.73     0  03:04           0        10.2       0.045
  HS02004901           JUNCTION     37.63    37.63     0  03:01       0.103       0.103       1.741
  HS02004881           JUNCTION     14.26   140.54     0  03:01      0.0422       0.463       0.111
  HS02004876           JUNCTION     25.66   127.65     0  03:01      0.0814       0.422       0.130
  HS02004870           JUNCTION     26.26   103.58     0  03:01      0.0799        0.34       0.035
  HS02004862           JUNCTION     25.49    79.37     0  03:01      0.0888       0.261       0.067
  HS02004856           JUNCTION     19.64    55.40     0  03:01      0.0601       0.173       0.845
  HS02004852           JUNCTION      0.00    37.85     0  03:01           0       0.113       0.053
  HS02004848           JUNCTION     55.75    55.75     0  03:01       0.197       0.197       0.028
  HS02004842           JUNCTION      0.00    16.84     0  03:01           0       0.097      15.491
  HS02004837           JUNCTION     50.35    65.70     0  03:01       0.318       0.402       0.204
  HS02004830           JUNCTION      0.15    64.80     0  03:01     0.00423       0.392       0.316
  HS02004824           JUNCTION     65.57   128.43     0  03:01       0.251       0.642       0.086
  HS02004817           JUNCTION      0.60   124.46     0  03:01      0.0169       0.658       2.600
  HS02004807           JUNCTION     48.45   165.78     0  03:01       0.147       0.788       0.555
  HS02004802           JUNCTION      0.00   165.31     0  03:04           0       0.785       0.507
  HS02004799           JUNCTION     38.67   446.04     0  03:01       0.119        1.42       0.191
  HS02004792           JUNCTION    184.82   411.78     0  03:01        0.54         1.3       0.033
  HS02004788           JUNCTION     58.68   233.43     0  03:02       0.219       0.758       0.053
  HS02004785           JUNCTION      0.15   182.21     0  03:01     0.00423        0.54       0.094
  HS02004777           JUNCTION      0.03   185.01     0  03:01    0.000846       0.541       0.972
  HS02004770           JUNCTION    154.22   188.95     0  03:01       0.441       0.542       0.578
  HS02004480           JUNCTION      0.00   517.23     0  03:01           0        1.66       0.069
  HS02004479           JUNCTION      0.00    75.44     0  03:02           0       0.258       0.287
  HS02004478           JUNCTION      0.00   677.11     0  03:02           0        2.43       0.010
  YS02001745           JUNCTION    438.14   438.14     0  03:01        3.01        3.02       0.379
  YS02001748           JUNCTION      0.04   553.58     0  02:32     0.00127        3.01       0.715
  YS02001751           JUNCTION      0.01   444.40     0  03:01     0.00031        2.98       0.796
  YS02001754           JUNCTION      0.26   444.38     0  03:01     0.00733        2.96       0.844
  YS02001762           JUNCTION      0.00   314.23     0  02:43           0        2.01       1.076
  YS02001765           JUNCTION      0.00   314.33     0  02:43           0        2.01       1.241
  YS02001767           JUNCTION      0.54   314.62     0  02:43      0.0151        2.04       1.809
  YS02001770           JUNCTION    552.50   648.99     0  03:01        3.37        3.82       0.845
  YS02001774           JUNCTION      0.00   649.77     0  03:01           0        2.22       1.155
  YS02001779           JUNCTION      0.01   650.33     0  03:01    0.000141        2.19       0.715
  YS02001882           JUNCTION      0.00    22.08     0  02:30           0      0.0207      12.576
  YS02001884           JUNCTION      0.00    50.91     0  02:30           0      0.0586      12.016
  YS02001759           JUNCTION    536.49   622.87     0  02:43        3.11        4.63       0.500
  YS02001887           JUNCTION    679.97   679.97     0  03:01        3.56         3.6       0.243
  YS02001890           JUNCTION      0.00   681.06     0  03:01           0        3.55       0.269
  YS02001898           JUNCTION      0.00   518.25     0  03:00           0        3.45       0.089
  YS02001901           JUNCTION      0.00   518.23     0  03:00           0        3.45       0.209
  YS02001904           JUNCTION      0.00   517.94     0  03:00           0        3.44       0.191
  YS02001907           JUNCTION      0.00  1096.78     0  03:01           0        7.77       0.315
  YS02001910           JUNCTION      0.00   580.02     0  03:01           0        4.34       0.275
  YS02001915           JUNCTION    389.26   579.37     0  03:01        2.52        4.37       0.145
  YS02001918           JUNCTION      0.00   245.20     0  02:47           0        1.87       0.073
  YS02001619           JUNCTION    380.66   380.66     0  03:01        2.51        2.51       0.485
  YS02001629           JUNCTION      0.00   197.95     0  02:39           0        1.59       1.849
  YS02001641           JUNCTION      0.00   414.56     0  02:39           0        4.45       0.477
  YS02001644           JUNCTION    416.76  1492.94     0  03:01         2.9        10.6       0.254
  YS02001652           JUNCTION      0.00   501.28     0  03:01           0        2.62       0.912
  YS02001655           JUNCTION      0.15   500.94     0  03:01     0.00434        2.65       0.944
  YS02001920           JUNCTION      2.87   245.33     0  02:47      0.0809        1.85       0.155
  YS02001923           JUNCTION      0.04   248.83     0  02:47     0.00106        1.76       0.057
  YS02001926           JUNCTION      0.05   201.58     0  03:02     0.00147        1.76       0.189
  YS02001929           JUNCTION    189.18   189.18     0  03:01        1.75        1.75       0.036
  YS02001658           JUNCTION      0.00   586.01     0  02:30           0        2.68       0.806
  YS02001661           JUNCTION      0.00   660.62     0  02:43           0        3.15      -0.018
  YS02001664           JUNCTION    492.63   492.63     0  03:01        2.67        3.15       0.215
  YS02001622           JUNCTION      0.00   381.10     0  03:01           0         2.5       1.284
  YS02001633           JUNCTION    423.29   423.29     0  03:01        2.99        4.52       0.718
  YS02001649           JUNCTION      0.00   877.47     0  02:40           0        5.94       0.636
  YS02001757           JUNCTION      0.00  1679.29     0  02:40           0        9.74       0.954
  YS02001895           JUNCTION      0.00   518.27     0  03:00           0        3.45       0.152
  YS02001625           JUNCTION      0.00   407.68     0  03:01           0        2.48       1.595
  YS02163301           JUNCTION      0.00   216.35     0  02:30           0        1.57       1.564
  YS02163601           JUNCTION      0.11   415.32     0  02:39      0.0031        4.48       0.680
  YS02164001           JUNCTION      0.00   414.83     0  02:39           0        4.46       0.462
  YS02001647           JUNCTION      0.00   683.18     0  03:01           0        5.03       0.567
  YSB1154              JUNCTION     44.76    44.76     0  03:01       0.144       0.144       1.018
  YSB6556              JUNCTION      0.00    43.28     0  03:01           0       0.145       0.869
  YSB1174              JUNCTION     38.10    38.10     0  03:01       0.106       0.107       1.222
  YSB1171              JUNCTION      0.00    76.92     0  03:01           0       0.257       2.525
  YS02006553           JUNCTION      0.00   709.13     0  03:46           0        6.68       0.234
  YS02006561           JUNCTION      0.00   984.02     0  03:01           0        9.91       0.006
  YS02006556           JUNCTION      0.00   709.21     0  03:46           0        6.69       0.176
  YS02006558           JUNCTION    587.14   984.70     0  03:01        3.28        9.94       0.054
  YS02001783           JUNCTION      0.00   984.19     0  03:00           0        9.91       0.024
  YS02001784           JUNCTION      1.06   984.87     0  03:00      0.0299        9.93       0.038
  YS02001786           JUNCTION      0.06   985.17     0  03:00     0.00159        9.93       0.037
  YS02001788           JUNCTION      0.07   984.84     0  03:01       0.002        9.93       0.022
  YS02001790           JUNCTION      0.15   985.21     0  03:01     0.00437        9.93       0.018
  YS02001791           JUNCTION      0.00   985.37     0  03:01           0        9.93       0.015
  YS02001793           JUNCTION      0.00   985.86     0  03:01           0        9.93      -0.003
  WSC                  OUTFALL       0.00  1334.45     0  03:07           0        20.5       0.000
  JK-storage           STORAGE       0.00   986.09     0  03:01           0        10.1     -11.667
  CC-storage           STORAGE       0.00  1680.58     0  02:40           0        8.08       0.816
  XR-storage           STORAGE    1024.87  1024.87     0  03:01        12.7        13.3      -0.003
  
  
  **********************
  Node Surcharge Summary
  **********************
  
  Surcharging occurs when water rises above the top of the highest conduit.
  ---------------------------------------------------------------------
                                               Max. Height   Min. Depth
                                   Hours       Above Crown    Below Rim
  Node                 Type      Surcharged         Meters       Meters
  ---------------------------------------------------------------------
  WS02004401           JUNCTION        0.52          0.235        1.425
  WS02004402           JUNCTION        0.57          0.225        1.515
  WS02004403           JUNCTION        0.58          0.200        1.830
  WS02004404           JUNCTION        0.75          0.246        2.534
  WS02004406           JUNCTION        0.69          0.164        2.286
  WS02004413           JUNCTION        0.19          0.023        2.177
  WS02004405           JUNCTION        0.72          0.219        2.581
  WS02006109           JUNCTION        4.64          0.837        0.983
  WS02006110           JUNCTION        1.62          0.538        1.312
  WS02006111           JUNCTION        0.13          0.074        1.796
  WS02006112           JUNCTION        2.38          0.558        1.122
  WS02006113           JUNCTION        0.16          0.123        1.807
  WS02006115           JUNCTION        0.36          0.207        2.043
  WS02006116           JUNCTION        0.38          0.203        2.087
  WS02006230           JUNCTION        1.34          0.796        0.774
  WS02006231           JUNCTION        1.90          0.812        0.718
  WS02006232           JUNCTION        4.24          0.927        0.553
  WS02006234           JUNCTION        3.60          0.805        0.435
  WS02006235           JUNCTION        3.91          0.828        0.462
  WS02006238           JUNCTION        3.97          0.837        0.593
  WS02006240           JUNCTION        3.51          0.692        0.698
  WS02006242           JUNCTION        3.65          0.697        0.123
  WS02006243           JUNCTION        2.55          0.565        0.205
  WS02006245           JUNCTION        2.18          0.503        0.347
  WS02006247           JUNCTION        2.21          0.489        0.271
  WS02006248           JUNCTION        1.77          0.380        0.000
  WS02006249           JUNCTION        1.87          0.390        0.000
  WS02006239           JUNCTION        3.66          0.750        0.540
  WS02006251           JUNCTION        0.98          0.372        0.808
  WS02006252           JUNCTION        2.37          0.472        0.628
  WS02006253           JUNCTION        1.03          0.417        2.063
  WS02006256           JUNCTION        6.84          2.050        0.000
  WS02006228           JUNCTION        4.60          1.000        1.200
  YS02001748           JUNCTION        5.22          0.546        0.644
  YS02001751           JUNCTION        5.37          0.573        0.627
  YS02001754           JUNCTION        5.57          0.792        0.358
  YS02001762           JUNCTION        5.75          1.060        0.090
  YS02001765           JUNCTION        5.72          1.010        0.090
  YS02001767           JUNCTION        5.69          0.959        0.071
  YS02001770           JUNCTION        5.67          0.904        0.016
  YS02001774           JUNCTION        5.74          0.988        0.062
  YS02001779           JUNCTION        5.56          0.680        0.000
  YS02001882           JUNCTION        1.13          0.633        0.197
  YS02001884           JUNCTION        1.15          0.676        0.194
  YS02001759           JUNCTION        5.78          1.102        0.108
  YS02001887           JUNCTION        1.21          0.763        0.187
  YS02001890           JUNCTION        1.24          0.760        0.000
  YS02001898           JUNCTION        1.09          0.532        0.208
  YS02001901           JUNCTION        1.18          0.677        0.193
  YS02001904           JUNCTION        1.17          0.640        0.210
  YS02001907           JUNCTION        1.91          0.950        0.000
  YS02001910           JUNCTION        1.28          0.785        0.315
  YS02001915           JUNCTION        1.11          0.598        0.402
  YS02001918           JUNCTION        0.94          0.288        0.522
  YS02001619           JUNCTION        5.36          0.560        0.050
  YS02001629           JUNCTION        5.38          0.470        0.000
  YS02001641           JUNCTION        5.73          0.938        0.162
  YS02001644           JUNCTION        5.73          0.920        0.000
  YS02001652           JUNCTION        5.61          1.056        0.074
  YS02001655           JUNCTION        5.39          1.200        0.000
  YS02001920           JUNCTION        0.97          0.366        0.774
  YS02001658           JUNCTION        5.25          1.015        0.285
  YS02001661           JUNCTION        0.14          0.876        0.514
  YS02001622           JUNCTION        5.41          0.540        0.080
  YS02001633           JUNCTION        5.71          0.930        0.130
  YS02001649           JUNCTION        5.75          1.050        0.000
  YS02001757           JUNCTION        5.86          1.192        0.018
  YS02001895           JUNCTION        1.10          0.567        0.183
  YS02001625           JUNCTION        5.64          0.780        0.000
  YS02163301           JUNCTION        5.69          0.897        0.133
  YS02163601           JUNCTION        5.75          0.992        0.088
  YS02164001           JUNCTION        5.72          0.919        0.181
  YS02001647           JUNCTION        5.62          0.814        0.086
  YS02006553           JUNCTION        1.98          0.969        0.221
  YS02006561           JUNCTION        0.99          0.281        0.869
  YS02006556           JUNCTION        1.51          0.894        0.456
  YS02006558           JUNCTION        1.47          0.877        0.523
  YS02001783           JUNCTION        1.38          0.745        0.855
  YS02001784           JUNCTION        1.36          0.620        0.870
  YS02001786           JUNCTION        1.31          0.562        0.868
  YS02001788           JUNCTION        1.26          0.376        1.104
  YS02001790           JUNCTION        2.12          1.157        0.000
  YS02001791           JUNCTION        2.22          1.494        0.426
  YS02001793           JUNCTION        2.48          2.240        0.360
  
  
  *********************
  Node Flooding Summary
  *********************
  
  Flooding refers to all water that overflows a node, whether it ponds or not.
  --------------------------------------------------------------------------
                                                             Total   Maximum
                                 Maximum   Time of Max       Flood    Ponded
                        Hours       Rate    Occurrence      Volume     Depth
  Node                 Flooded       LPS   days hr:min    10^6 ltr    Meters
  --------------------------------------------------------------------------
  WS02006248              0.08     15.14      0  03:03       0.002     0.000
  WS02006249              0.92    425.05      0  03:00       0.411     0.000
  WS02006256              4.18    830.95      0  03:02       6.716     0.000
  YS02001779              2.75    650.24      0  03:01       2.175     0.000
  YS02001890              0.34    164.40      0  03:01       0.085     0.000
  YS02001907              0.81    699.86      0  03:01       1.073     0.000
  YS02001629              0.01     13.11      0  02:33       0.000     0.000
  YS02001644              4.36   1492.89      0  03:01       8.712     0.000
  YS02001655              0.01    148.01      0  02:25       0.000     0.000
  YS02001649              0.03     30.72      0  04:18       0.001     0.000
  YS02001625              1.42    407.16      0  03:01       0.855     0.000
  YS02001790              0.01    219.75      0  02:27       0.000     0.000
  JK-storage              0.93    689.22      0  02:30       1.054     0.000
  XR-storage              3.46    644.72      0  03:01       2.614     0.000
  
  
  **********************
  Storage Volume Summary
  **********************
  
  --------------------------------------------------------------------------------------------------
                         Average     Avg  Evap Exfil       Maximum     Max    Time of Max    Maximum
                          Volume    Pcnt  Pcnt  Pcnt        Volume    Pcnt     Occurrence    Outflow
  Storage Unit           1000 m3    Full  Loss  Loss       1000 m3    Full    days hr:min        LPS
  --------------------------------------------------------------------------------------------------
  JK-storage               0.141      48     0     0         0.291     100       0  02:28     983.00
  CC-storage               3.274      21     0     0         3.921      25       0  03:14     399.93
  XR-storage               0.811      88     0     0         0.926     100       0  02:59     380.00
  
  
  ***********************
  Outfall Loading Summary
  ***********************
  
  ---------------------------------------------------------------------------------------------------------------------------------
                         Flow       Avg       Max       Total         Total         Total         Total         Total         Total
                         Freq      Flow      Flow      Volume           COD            SS            TN            TP         NH4-N
  Outfall Node           Pcnt       LPS       LPS    10^6 ltr            kg            kg            kg            kg            kg
  ---------------------------------------------------------------------------------------------------------------------------------
  WSC                   99.98    813.44   1334.45      20.549      2429.824      4210.144       149.981        17.532        90.459
  ---------------------------------------------------------------------------------------------------------------------------------
  System                99.98    813.44   1334.45      20.549      2429.824      4210.144       149.981        17.532        90.459
  
  
  ********************
  Link Flow Summary
  ********************
  
  -----------------------------------------------------------------------------
                                 Maximum  Time of Max   Maximum    Max/    Max/
                                  |Flow|   Occurrence   |Veloc|    Full    Full
  Link                 Type          LPS  days hr:min     m/sec    Flow   Depth
  -----------------------------------------------------------------------------
  WS02003066WSF200     CONDUIT    938.73     0  03:04      3.00    0.16    0.32
  WS02006287WS02006284 CONDUIT    678.97     0  03:02      2.38    0.31    0.39
  WS02006284WS02006280 CONDUIT    680.21     0  03:02      2.62    0.28    0.37
  WS02006280WS02006229 CONDUIT    680.27     0  03:02      3.85    0.15    0.50
  WS02006229WS02006228 CONDUIT    914.29     0  03:02      1.82    3.03    1.00
  WS02006256WS02006235 CONDUIT    288.92     0  00:00      4.23    3.06    1.00
  WS02006253WS02006251 CONDUIT    144.36     0  03:01      0.61    0.43    1.00
  WS02006252WS02006251 CONDUIT    400.71     0  06:00      3.19    1.47    1.00
  WS02006251WS02006249 CONDUIT    538.10     0  03:00      1.40    1.55    1.00
  WS02006249WS02006248 CONDUIT    413.30     0  06:00      1.19    2.26    1.00
  WS02006248WS02006247 CONDUIT    413.21     0  06:00      1.16    0.90    1.00
  WS02006247WS02006245 CONDUIT    413.26     0  06:00      1.14    3.28    1.00
  WS02006245WS02006243 CONDUIT    413.06     0  06:00      1.17    1.22    1.00
  WS02006243WS02006242 CONDUIT    412.69     0  06:00      1.07    0.88    1.00
  WS02006242WS02006240 CONDUIT    412.84     0  06:00      1.07    1.64    1.00
  WS02006240WS02006239 CONDUIT    412.58     0  06:00      1.07    1.30    1.00
  WS02006239WS02006238 CONDUIT    413.31     0  06:00      1.07    1.32    1.00
  WS02006238WS02006235 CONDUIT    414.73     0  06:00      1.45    0.93    1.00
  WS02006235WS02006234 CONDUIT    522.51     0  07:00      1.36    5.51    1.00
  WS02006234WS02006232 CONDUIT    522.23     0  07:00      1.39    1.06    1.00
  WS02006232WS02006231 CONDUIT    522.30     0  07:00      1.36    1.09    1.00
  WS02006231WS02006230 CONDUIT    522.17     0  07:00      1.38    7.92    1.00
  WS02006230WS02006229 CONDUIT    532.87     0  06:58      1.38   11.86    1.00
  WS02006228WS02006109 CONDUIT    914.32     0  03:02      1.82    3.99    1.00
  WS02006116WS02004401 CONDUIT    940.13     0  03:03      1.20    1.30    1.00
  WS02006115WS02006116 CONDUIT    939.50     0  03:02      1.20    1.21    1.00
  WS02006113WS02006111 CONDUIT    915.88     0  03:02      2.60    1.10    1.00
  WS02006112WS02006115 CONDUIT    939.36     0  03:02      1.20    0.55    1.00
  WS02006111WS02006112 CONDUIT    916.03     0  03:03      1.82    0.44    1.00
  WS02006110WS02006113 CONDUIT    915.60     0  03:02      1.82    0.83    1.00
  WS02006109WS02006110 CONDUIT    915.67     0  03:02      1.82    1.76    1.00
  WS02004411WS02004412 CONDUIT    937.69     0  03:03      1.24    1.33    0.92
  WS02004401WS02004402 CONDUIT    939.91     0  03:02      1.20    1.13    1.00
  WS02004413WS02003067 CONDUIT    938.13     0  03:04      1.55    0.40    0.72
  WS02004412WS02004413 CONDUIT    938.04     0  03:04      1.22    0.63    0.95
  WS02004410WS02004411 CONDUIT    937.98     0  03:03      1.23    1.28    0.94
  WS02004409WS02004410 CONDUIT    938.44     0  03:03      1.21    1.21    0.95
  WS02004407WS02004409 CONDUIT    939.53     0  03:03      1.68    0.33    0.68
  WS02004406WS02004407 CONDUIT    939.90     0  03:03      1.60    0.42    0.70
  WS02004405WS02004406 CONDUIT    940.35     0  03:02      1.20    1.85    1.00
  WS02004404WS02004405 CONDUIT    941.10     0  03:02      1.20    9.22    1.00
  WS02004403WS02004404 CONDUIT    940.24     0  03:02      1.20    0.68    1.00
  WS02004402WS02004403 CONDUIT    939.83     0  03:02      1.20    1.35    1.00
  WS02004139WS02001211 CONDUIT    382.94     0  03:16      0.90    0.48    0.64
  WS02004138WS02004139 CONDUIT    395.52     0  00:00      3.64    0.08    0.47
  WS02003067WS02003066 CONDUIT    938.59     0  03:04      1.65    0.30    0.50
  WS02001213WS02003059 CONDUIT    398.67     0  03:15      0.89    0.66    0.87
  WS02001212WS02001213 CONDUIT    395.75     0  03:16      1.32    0.61    0.56
  WS02001211WS02001212 CONDUIT    393.22     0  03:16      0.78    0.30    0.71
  WS02003072WS02003073 CONDUIT   1332.44     0  03:06      1.96    2.88    0.58
  WS02003069WS02003072 CONDUIT   1332.37     0  03:05      1.82    0.64    0.62
  WS02003060WS02003069 CONDUIT   1332.40     0  03:05      2.03    0.52    0.56
  WS02003059WS02003060 CONDUIT    402.68     0  03:34      0.95    0.26    0.77
  HS02004901HS02004770 CONDUIT     37.22     0  03:01      0.10    0.14    0.53
  HS02004876HS02004881 CONDUIT    127.65     0  03:01      1.21    1.36    0.15
  HS02004870HS02004876 CONDUIT    103.11     0  03:01      0.82    0.07    0.18
  HS02004842HS02004848 CONDUIT     16.84     0  03:01      0.07    0.01    0.33
  HS02004837HS02004842 CONDUIT     17.91     0  03:03      0.42    0.01    0.35
  HS02004830HS02004837 CONDUIT     64.65     0  03:01      0.67    0.06    0.14
  HS02004824HS02004830 CONDUIT     64.13     0  03:02      0.62    0.08    0.16
  HS02004817HS02004824 CONDUIT    123.86     0  03:01      0.31    0.06    0.58
  HS02004770HS02004777 CONDUIT    184.98     0  03:01      0.49    0.34    0.54
  HS02004799HS02004480 CONDUIT    444.36     0  03:01      1.07    0.56    0.60
  HS02004792HS02004799 CONDUIT    408.48     0  03:01      1.20    0.25    0.49
  HS02004788HS02004792 CONDUIT    232.96     0  03:02      1.28    0.15    0.26
  HS02004785HS02004788 CONDUIT    181.79     0  03:02      0.91    1.37    0.29
  HS02004777HS02004785 CONDUIT    182.06     0  03:01      0.57    0.22    0.45
  HS02004480HS02004478 CONDUIT    517.38     0  03:01      1.55    2.18    0.48
  HS02004479HS02004480 CONDUIT     77.32     0  03:02      0.30    0.07    0.57
  HS02004862HS02004870 CONDUIT     79.03     0  03:01      0.80    0.09    0.14
  HS02004848HS02004852 CONDUIT     37.85     0  03:01      0.53    0.04    0.10
  HS02004856HS02004862 CONDUIT     54.77     0  03:01      0.59    0.05    0.13
  HS02004852HS02004856 CONDUIT     37.76     0  03:02      0.34    0.04    0.16
  HS02004802HS02004478 CONDUIT    170.17     0  03:04      0.54    0.15    0.48
  HS02004478WS02006287 CONDUIT    677.70     0  03:02      2.11    0.19    0.36
  HS02004817HS02004807 CONDUIT    128.12     0  03:04      0.25    0.08    0.75
  HS02004807HS02004802 CONDUIT    165.31     0  03:04      0.46    0.32    0.53
  YS02001759YS02001757 CONDUIT    622.06     0  02:43      0.79    0.44    1.00
  YS02001762YS02001759 CONDUIT    314.71     0  02:43      0.40    0.36    1.00
  YS02001765YS02001762 CONDUIT    314.23     0  02:43      0.40    0.29    1.00
  YS02001770YS02001767 CONDUIT    314.09     0  02:43      0.40    1.24    1.00
  YS02001774YS02001770 CONDUIT    649.77     0  03:01      0.83    0.42    1.00
  YS02001779YS02001774 CONDUIT    650.33     0  03:01      0.83    0.33    1.00
  YS02001649YS02001757 CONDUIT    876.75     0  02:40      1.12    0.53    1.00
  YS02001767YS02001765 CONDUIT    314.33     0  02:43      0.40    0.40    1.00
  YS02006561YS02001783 CONDUIT    984.19     0  03:00      2.15    0.51    1.00
  YS02001783YS02001784 CONDUIT    983.81     0  03:00      1.96    1.36    1.00
  YS02001784YS02001785 CONDUIT    985.11     0  03:00      1.96    2.29    1.00
  YS02001788YS02001790 CONDUIT    985.05     0  03:01      2.44    0.73    1.00
  YS02001790YS02001791 CONDUIT    985.37     0  03:01      2.90    1.07    1.00
  YS02001791YS02001793 CONDUIT    985.86     0  03:01      5.76    0.42    1.00
  YS02001910YS02001907 CONDUIT    579.50     0  03:01      0.74    0.33    1.00
  YS02001786YS02001788 CONDUIT    984.76     0  03:01      2.31    1.90    1.00
  YS02001915YS02001910 CONDUIT    580.02     0  03:01      0.74    0.29    1.00
  YS02001918YS02001915 CONDUIT    250.75     0  03:45      0.44    0.14    1.00
  YS02001923YS02001920 CONDUIT    242.46     0  02:47      0.75    0.11    1.00
  YS02001926YS02001923 CONDUIT    248.79     0  02:47      0.86    0.36    0.93
  YS02001929YS02001926 CONDUIT    201.53     0  03:02      0.92    0.10    0.81
  YS02001920YS02001918 CONDUIT    245.20     0  02:47      0.72    0.24    1.00
  YS02001629YS02163301 CONDUIT    216.35     0  02:30      0.28    0.27    1.00
  YS02001619YS02001622 CONDUIT    381.10     0  03:01      0.59    0.56    1.00
  YS02001622YS02001625 CONDUIT    381.65     0  03:01      0.49    0.20    1.00
  YS02001625YS02001629 CONDUIT    197.95     0  02:39      0.25    0.09    1.00
  YS02163301YS02001633 CONDUIT    217.13     0  02:30      0.28    0.20    1.00
  YS02163601YS02164001 CONDUIT    414.83     0  02:39      0.53    0.37    1.00
  YS02164001YS02001641 CONDUIT    414.56     0  02:39      0.53    0.57    1.00
  YS02001641YS02001644 CONDUIT    414.46     0  02:39      0.53    1.34    1.00
  YS02001647YS02001649 CONDUIT    683.18     0  03:01      0.87    0.36    1.00
  YS02006553YS02006556 CONDUIT    709.21     0  03:46      0.90    0.61    1.00
  YS02006556YS02006558 CONDUIT    709.37     0  03:46      0.90    0.56    1.00
  YSB6556YSB1171       CONDUIT     42.83     0  03:02      0.13    0.04    0.82
  YS02001907YS02006553 CONDUIT    709.13     0  03:46      0.79    0.83    1.00
  YS02006558YS02006561 CONDUIT    984.02     0  03:01      3.48    2.17    1.00
  YS02001633YS02163601 CONDUIT    415.21     0  02:39      0.53    0.44    1.00
  YS02001644YS02001647 CONDUIT    683.03     0  03:01      0.87    0.40    1.00
  YS02001745YS02001748 CONDUIT    553.54     0  02:32      1.45    0.21    0.97
  YS02001748YS02001751 CONDUIT    444.39     0  03:01      1.03    0.22    1.00
  YS02001751YS02001754 CONDUIT    444.12     0  03:01      0.88    0.21    1.00
  YS02001754YS02001757 CONDUIT    444.32     0  03:01      0.57    0.18    1.00
  YS02001882YS02001884 CONDUIT     22.08     0  02:30      0.12    0.03    1.00
  YS02001884YS02001887 CONDUIT     50.91     0  02:30      0.08    0.07    1.00
  YS02001890YS02001895 CONDUIT    518.27     0  03:00      0.66    0.24    1.00
  YS02001895YS02001898 CONDUIT    518.25     0  03:00      0.66    0.90    1.00
  YS02001898YS02001901 CONDUIT    518.23     0  03:00      0.66    0.33    1.00
  YS02001901YS02001904 CONDUIT    517.94     0  03:00      0.66    0.80    1.00
  YS02001904YS02001907 CONDUIT    519.03     0  02:59      0.66    0.18    1.00
  YS02001887YS02001890 CONDUIT    681.06     0  03:01      0.87    1.17    1.00
  YS02001652YS02001649 CONDUIT    501.82     0  03:01      0.64    0.25    1.00
  YS02001655YS02001652 CONDUIT    501.28     0  03:01      0.94    0.24    1.00
  YS02001658YS02001655 CONDUIT    500.79     0  03:01      1.18    0.21    1.00
  YS02001661YS02001658 CONDUIT    586.01     0  02:30      1.52    0.23    1.00
  YS02001664YS02001661 CONDUIT    660.62     0  02:43      1.43    0.21    0.77
  YSB1154YSB6556       CONDUIT     43.28     0  03:01      0.18    0.08    0.73
  YSB1174YSB1171       CONDUIT     36.65     0  03:01      0.11    0.06    0.85
  YSB1171HS02004479    CONDUIT     75.44     0  03:02      0.54    0.05    0.68
  HS02004881HS02006253 CONDUIT    140.49     0  03:01      2.26    0.03    0.54
  YS02001793JiankangQianchi CONDUIT    986.09     0  03:01     16.99    0.08    1.00
  YS02001757CaochengTiaoxuchi CONDUIT   1680.58     0  02:40      2.17    0.74    1.00
  WSF200WS02003060     CONDUIT    939.02     0  03:04      1.93    0.21    0.45
  1                    CONDUIT   1334.45     0  03:07      3.59    0.46    0.48
  CC-Pump-1            PUMP       200.00     0  03:00              1.00
  CC-Pump-2            PUMP       199.93     0  06:40              1.00
  JK-Pump-1            PUMP       300.00     0  00:00              1.00
  JK-Pump-2            PUMP       683.00     0  02:50              1.00
  XR-Pump-1            PUMP        95.00     0  00:00              1.00
  XR-Pump-2            PUMP        95.00     0  00:00              1.00
  XR-Pump-3            PUMP        95.00     0  00:00              1.00
  XR-Pump-4            PUMP        95.00     0  00:00              1.00
  
  
  ***************************
  Flow Classification Summary
  ***************************
  
  -------------------------------------------------------------------------------------
                      Adjusted    ---------- Fraction of Time in Flow Class ---------- 
                       /Actual         Up    Down  Sub   Sup   Up    Down  Norm  Inlet 
  Conduit               Length    Dry  Dry   Dry   Crit  Crit  Crit  Crit  Ltd   Ctrl  
  -------------------------------------------------------------------------------------
  WS02003066WSF200        1.00   0.01  0.02  0.00  0.00  0.97  0.00  0.00  0.57  0.00
  WS02006287WS02006284    1.00   0.03  0.01  0.00  0.66  0.30  0.00  0.00  0.65  0.00
  WS02006284WS02006280    1.00   0.04  0.00  0.00  0.00  0.00  0.00  0.96  0.00  0.00
  WS02006280WS02006229    1.00   0.04  0.00  0.00  0.01  0.02  0.00  0.94  0.01  0.00
  WS02006229WS02006228    1.00   0.00  0.00  0.00  1.00  0.00  0.00  0.00  0.00  0.00
  WS02006256WS02006235    1.00   0.00  0.00  0.00  1.00  0.00  0.00  0.00  0.00  0.00
  WS02006253WS02006251    1.00   0.02  0.01  0.00  0.97  0.00  0.00  0.00  0.00  0.00
  WS02006252WS02006251    1.00   0.16  0.00  0.00  0.09  0.00  0.75  0.00  0.00  0.00
  WS02006251WS02006249    1.00   0.00  0.00  0.00  1.00  0.00  0.00  0.00  0.23  0.00
  WS02006249WS02006248    1.00   0.00  0.01  0.00  0.92  0.00  0.07  0.00  0.00  0.00
  WS02006248WS02006247    1.00   0.01  0.00  0.00  0.99  0.00  0.00  0.00  0.13  0.00
  WS02006247WS02006245    1.00   0.00  0.00  0.00  1.00  0.00  0.00  0.00  0.00  0.00
  WS02006245WS02006243    1.00   0.00  0.00  0.00  0.97  0.00  0.00  0.03  0.00  0.00
  WS02006243WS02006242    1.00   0.00  0.00  0.00  1.00  0.00  0.00  0.00  0.21  0.00
  WS02006242WS02006240    1.00   0.00  0.00  0.00  1.00  0.00  0.00  0.00  0.00  0.00
  WS02006240WS02006239    1.00   0.00  0.00  0.00  0.96  0.00  0.00  0.04  0.01  0.00
  WS02006239WS02006238    1.00   0.00  0.00  0.00  1.00  0.00  0.00  0.00  0.13  0.00
  WS02006238WS02006235    1.00   0.00  0.00  0.00  1.00  0.00  0.00  0.00  0.00  0.00
  WS02006235WS02006234    1.00   0.00  0.00  0.00  0.96  0.00  0.04  0.00  0.00  0.00
  WS02006234WS02006232    1.00   0.00  0.00  0.00  1.00  0.00  0.00  0.00  0.09  0.00
  WS02006232WS02006231    1.00   0.00  0.00  0.00  1.00  0.00  0.00  0.00  0.00  0.00
  WS02006231WS02006230    1.00   0.00  0.00  0.00  0.81  0.00  0.18  0.00  0.00  0.00
  WS02006230WS02006229    1.00   0.00  0.00  0.00  1.00  0.00  0.00  0.00  0.00  0.00
  WS02006228WS02006109    1.00   0.00  0.00  0.00  1.00  0.00  0.00  0.00  0.00  0.00
  WS02006116WS02004401    1.00   0.01  0.00  0.00  0.99  0.00  0.00  0.00  0.00  0.00
  WS02006115WS02006116    1.00   0.01  0.00  0.00  0.99  0.00  0.00  0.00  0.00  0.00
  WS02006113WS02006111    1.00   0.01  0.00  0.00  0.03  0.96  0.00  0.00  0.14  0.00
  WS02006112WS02006115    1.00   0.01  0.00  0.00  0.99  0.00  0.00  0.00  0.00  0.00
  WS02006111WS02006112    1.00   0.01  0.00  0.00  0.99  0.00  0.00  0.00  0.89  0.00
  WS02006110WS02006113    1.00   0.00  0.00  0.00  0.99  0.00  0.00  0.00  0.00  0.00
  WS02006109WS02006110    1.00   0.00  0.00  0.00  0.99  0.00  0.00  0.00  0.00  0.00
  WS02004411WS02004412    1.00   0.02  0.00  0.00  0.98  0.00  0.00  0.00  0.00  0.00
  WS02004401WS02004402    1.00   0.01  0.00  0.00  0.99  0.00  0.00  0.00  0.00  0.00
  WS02004413WS02003067    1.00   0.02  0.01  0.00  0.00  0.00  0.98  0.00  0.00  0.00
  WS02004412WS02004413    1.00   0.02  0.00  0.00  0.98  0.00  0.00  0.00  0.01  0.00
  WS02004410WS02004411    1.00   0.01  0.00  0.00  0.99  0.00  0.00  0.00  0.00  0.00
  WS02004409WS02004410    1.00   0.01  0.00  0.00  0.99  0.00  0.00  0.00  0.02  0.00
  WS02004407WS02004409    1.00   0.01  0.00  0.00  0.98  0.00  0.00  0.00  0.95  0.00
  WS02004406WS02004407    1.00   0.00  0.01  0.00  0.99  0.00  0.00  0.00  0.00  0.00
  WS02004405WS02004406    1.00   0.00  0.00  0.00  1.00  0.00  0.00  0.00  0.00  0.00
  WS02004404WS02004405    1.00   0.00  0.00  0.00  1.00  0.00  0.00  0.00  0.00  0.00
  WS02004403WS02004404    1.00   0.00  0.01  0.00  0.99  0.00  0.00  0.00  0.00  0.00
  WS02004402WS02004403    1.00   0.01  0.00  0.00  0.99  0.00  0.00  0.00  0.00  0.00
  WS02004139WS02001211    1.00   0.00  0.00  0.00  1.00  0.00  0.00  0.00  0.00  0.00
  WS02004138WS02004139    1.00   0.00  0.00  0.00  1.00  0.00  0.00  0.00  1.00  0.00
  WS02003067WS02003066    1.00   0.02  0.00  0.00  0.97  0.00  0.00  0.00  0.00  0.00
  WS02001213WS02003059    1.00   0.00  0.00  0.00  1.00  0.00  0.00  0.00  0.00  0.00
  WS02001212WS02001213    1.00   0.00  0.00  0.00  0.94  0.00  0.06  0.00  0.00  0.00
  WS02001211WS02001212    1.00   0.00  0.00  0.00  1.00  0.00  0.00  0.00  0.00  0.00
  WS02003072WS02003073    1.00   0.00  0.00  0.00  0.00  0.00  0.00  1.00  0.00  0.00
  WS02003069WS02003072    1.00   0.00  0.00  0.00  1.00  0.00  0.00  0.00  0.11  0.00
  WS02003060WS02003069    1.00   0.00  0.00  0.00  0.99  0.01  0.00  0.00  0.09  0.00
  WS02003059WS02003060    1.00   0.00  0.00  0.00  1.00  0.00  0.00  0.00  0.01  0.00
  HS02004901HS02004770    1.00   0.03  0.00  0.00  0.97  0.00  0.00  0.00  0.00  0.00
  HS02004876HS02004881    1.00   0.01  0.00  0.00  0.93  0.06  0.00  0.00  0.00  0.00
  HS02004870HS02004876    1.00   0.00  0.00  0.00  0.99  0.00  0.00  0.00  0.95  0.00
  HS02004842HS02004848    1.00   0.00  0.03  0.00  0.97  0.00  0.00  0.00  0.54  0.00
  HS02004837HS02004842    1.00   0.00  0.00  0.00  1.00  0.00  0.00  0.00  0.11  0.00
  HS02004830HS02004837    1.00   0.00  0.00  0.00  1.00  0.00  0.00  0.00  0.99  0.00
  HS02004824HS02004830    1.00   0.00  0.00  0.00  1.00  0.00  0.00  0.00  0.01  0.00
  HS02004817HS02004824    1.00   0.00  0.00  0.00  1.00  0.00  0.00  0.00  0.97  0.00
  HS02004770HS02004777    1.00   0.00  0.03  0.00  0.97  0.00  0.00  0.00  0.03  0.00
  HS02004799HS02004480    1.00   0.00  0.01  0.00  0.96  0.00  0.03  0.00  0.00  0.00
  HS02004792HS02004799    1.00   0.00  0.00  0.00  1.00  0.00  0.00  0.00  0.98  0.00
  HS02004788HS02004792    1.00   0.00  0.00  0.00  1.00  0.00  0.00  0.00  0.98  0.00
  HS02004785HS02004788    1.00   0.00  0.00  0.00  1.00  0.00  0.00  0.00  0.00  0.00
  HS02004777HS02004785    1.00   0.00  0.00  0.00  1.00  0.00  0.00  0.00  0.12  0.00
  HS02004480HS02004478    1.00   0.03  0.00  0.00  0.74  0.00  0.00  0.22  0.00  0.00
  HS02004479HS02004480    1.00   0.01  0.00  0.00  0.99  0.00  0.00  0.00  0.12  0.00
  HS02004862HS02004870    1.00   0.00  0.00  0.00  1.00  0.00  0.00  0.00  0.04  0.00
  HS02004848HS02004852    1.00   0.03  0.00  0.00  0.97  0.00  0.00  0.00  0.64  0.00
  HS02004856HS02004862    1.00   0.00  0.04  0.00  0.96  0.00  0.00  0.00  0.83  0.00
  HS02004852HS02004856    1.00   0.03  0.00  0.00  0.96  0.00  0.00  0.00  0.81  0.00
  HS02004802HS02004478    1.00   0.03  0.00  0.00  0.96  0.00  0.00  0.00  0.02  0.00
  HS02004478WS02006287    1.00   0.04  0.00  0.00  0.81  0.15  0.00  0.00  0.65  0.00
  HS02004817HS02004807    1.00   0.00  0.03  0.00  0.97  0.00  0.00  0.00  0.01  0.00
  HS02004807HS02004802    1.00   0.03  0.00  0.00  0.96  0.00  0.00  0.00  0.00  0.00
  YS02001759YS02001757    1.00   0.00  0.00  0.00  1.00  0.00  0.00  0.00  0.16  0.00
  YS02001762YS02001759    1.00   0.00  0.00  0.00  1.00  0.00  0.00  0.00  0.03  0.00
  YS02001765YS02001762    1.00   0.00  0.00  0.00  1.00  0.00  0.00  0.00  0.14  0.00
  YS02001770YS02001767    1.00   0.00  0.00  0.00  1.00  0.00  0.00  0.00  0.00  0.00
  YS02001774YS02001770    1.00   0.00  0.03  0.00  0.96  0.00  0.00  0.00  0.03  0.00
  YS02001779YS02001774    1.00   0.00  0.00  0.00  1.00  0.00  0.00  0.00  0.19  0.00
  YS02001649YS02001757    1.00   0.00  0.00  0.00  1.00  0.00  0.00  0.00  0.16  0.00
  YS02001767YS02001765    1.00   0.00  0.00  0.00  1.00  0.00  0.00  0.00  0.00  0.00
  YS02006561YS02001783    1.00   0.05  0.00  0.00  0.34  0.61  0.00  0.00  0.46  0.00
  YS02001783YS02001784    1.00   0.00  0.05  0.00  0.95  0.00  0.00  0.00  0.00  0.00
  YS02001784YS02001785    1.00   0.00  0.00  0.00  1.00  0.00  0.00  0.00  0.18  0.00
  YS02001788YS02001790    1.00   0.00  0.00  0.00  0.41  0.59  0.00  0.00  0.37  0.00
  YS02001790YS02001791    1.00   0.00  0.00  0.00  0.38  0.62  0.00  0.00  0.45  0.00
  YS02001791YS02001793    1.00   0.00  0.00  0.00  0.42  0.58  0.00  0.00  0.02  0.00
  YS02001910YS02001907    1.00   0.00  0.00  0.00  0.99  0.00  0.00  0.01  0.12  0.00
  YS02001786YS02001788    1.00   0.00  0.00  0.00  0.39  0.61  0.00  0.00  0.00  0.00
  YS02001915YS02001910    1.00   0.00  0.00  0.00  0.99  0.01  0.00  0.00  0.16  0.00
  YS02001918YS02001915    1.00   0.00  0.00  0.00  0.99  0.01  0.00  0.00  0.54  0.00
  YS02001923YS02001920    1.00   0.00  0.00  0.00  1.00  0.00  0.00  0.00  0.82  0.00
  YS02001926YS02001923    1.00   0.00  0.02  0.00  0.14  0.00  0.84  0.00  0.00  0.00
  YS02001929YS02001926    1.00   0.00  0.03  0.00  0.97  0.00  0.00  0.00  0.74  0.00
  YS02001920YS02001918    1.00   0.00  0.00  0.00  1.00  0.00  0.00  0.00  0.00  0.00
  YS02001629YS02163301    1.00   0.04  0.00  0.00  0.96  0.00  0.00  0.00  0.00  0.00
  YS02001619YS02001622    1.00   0.03  0.00  0.00  0.97  0.00  0.00  0.00  0.00  0.00
  YS02001622YS02001625    1.00   0.03  0.00  0.00  0.97  0.00  0.00  0.00  0.05  0.00
  YS02001625YS02001629    1.00   0.03  0.01  0.00  0.94  0.00  0.02  0.00  0.00  0.00
  YS02163301YS02001633    1.00   0.00  0.04  0.00  0.96  0.00  0.00  0.00  0.00  0.00
  YS02163601YS02164001    1.00   0.00  0.02  0.00  0.98  0.00  0.00  0.00  0.00  0.00
  YS02164001YS02001641    1.00   0.00  0.02  0.00  0.98  0.00  0.00  0.00  0.06  0.00
  YS02001641YS02001644    1.00   0.00  0.00  0.00  1.00  0.00  0.00  0.00  0.00  0.00
  YS02001647YS02001649    1.00   0.00  0.04  0.00  0.96  0.00  0.00  0.00  0.01  0.00
  YS02006553YS02006556    1.00   0.00  0.00  0.00  1.00  0.00  0.00  0.00  0.03  0.00
  YS02006556YS02006558    1.00   0.00  0.00  0.00  1.00  0.00  0.00  0.00  0.00  0.00
  YSB6556YSB1171          1.00   0.01  0.02  0.00  0.97  0.00  0.00  0.00  0.00  0.00
  YS02001907YS02006553    1.00   0.00  0.01  0.00  0.99  0.00  0.00  0.00  0.00  0.00
  YS02006558YS02006561    1.00   0.05  0.00  0.00  0.14  0.81  0.00  0.00  0.46  0.00
  YS02001633YS02163601    1.00   0.00  0.00  0.00  1.00  0.00  0.00  0.00  0.15  0.00
  YS02001644YS02001647    1.00   0.00  0.04  0.00  0.96  0.00  0.00  0.00  0.00  0.00
  YS02001745YS02001748    1.00   0.00  0.00  0.00  0.92  0.00  0.00  0.08  0.04  0.00
  YS02001748YS02001751    1.00   0.00  0.00  0.00  0.97  0.03  0.00  0.00  0.15  0.00
  YS02001751YS02001754    1.00   0.00  0.00  0.00  0.95  0.00  0.00  0.05  0.02  0.00
  YS02001754YS02001757    1.00   0.00  0.00  0.00  1.00  0.00  0.00  0.00  0.18  0.00
  YS02001882YS02001884    1.00   0.04  0.00  0.00  0.96  0.00  0.00  0.00  0.00  0.00
  YS02001884YS02001887    1.00   0.02  0.01  0.00  0.97  0.00  0.00  0.00  0.00  0.00
  YS02001890YS02001895    1.00   0.00  0.04  0.00  0.96  0.00  0.00  0.00  0.00  0.00
  YS02001895YS02001898    1.00   0.04  0.00  0.00  0.95  0.00  0.01  0.00  0.00  0.00
  YS02001898YS02001901    1.00   0.04  0.00  0.00  0.96  0.00  0.00  0.00  0.01  0.00
  YS02001901YS02001904    1.00   0.04  0.00  0.00  0.96  0.00  0.00  0.00  0.00  0.00
  YS02001904YS02001907    1.00   0.00  0.04  0.00  0.96  0.00  0.00  0.00  0.00  0.00
  YS02001887YS02001890    1.00   0.00  0.00  0.00  0.99  0.00  0.01  0.00  0.00  0.00
  YS02001652YS02001649    1.00   0.00  0.00  0.00  1.00  0.00  0.00  0.00  0.17  0.00
  YS02001655YS02001652    1.00   0.00  0.00  0.00  0.95  0.00  0.00  0.05  0.02  0.00
  YS02001658YS02001655    1.00   0.00  0.04  0.00  0.94  0.03  0.00  0.00  0.10  0.00
  YS02001661YS02001658    1.00   0.04  0.00  0.00  0.91  0.05  0.00  0.00  0.11  0.00
  YS02001664YS02001661    1.00   0.03  0.00  0.00  0.93  0.04  0.00  0.00  0.20  0.00
  YSB1154YSB6556          1.00   0.03  0.00  0.00  0.97  0.00  0.00  0.00  0.02  0.00
  YSB1174YSB1171          1.00   0.02  0.01  0.00  0.97  0.00  0.00  0.00  0.00  0.00
  YSB1171HS02004479       1.00   0.01  0.00  0.00  0.98  0.00  0.00  0.00  0.10  0.00
  HS02004881HS02006253    1.00   0.02  0.00  0.00  0.78  0.02  0.00  0.19  0.58  0.00
  YS02001793JiankangQianchi    1.00   0.00  0.00  0.00  0.64  0.36  0.00  0.00  0.36  0.00
  YS02001757CaochengTiaoxuchi    1.00   0.00  0.06  0.00  0.94  0.00  0.00  0.00  0.00  0.00
  WSF200WS02003060        1.00   0.00  0.01  0.00  0.98  0.01  0.00  0.00  0.30  0.00
  1                       1.00   0.00  0.00  0.00  0.00  1.00  0.00  0.00  0.53  0.00
  
  
  *************************
  Conduit Surcharge Summary
  *************************
  
  ----------------------------------------------------------------------------
                                                           Hours        Hours 
                         --------- Hours Full --------   Above Full   Capacity
  Conduit                Both Ends  Upstream  Dnstream   Normal Flow   Limited
  ----------------------------------------------------------------------------
  WS02006229WS02006228        4.60      4.69      4.60      5.18         4.60
  WS02006256WS02006235        6.14      6.14      6.84      4.74         0.01
  WS02006253WS02006251        1.74      1.74      1.83      0.01         0.01
  WS02006252WS02006251        1.27      1.27      2.37      1.86         0.01
  WS02006251WS02006249        1.76      1.76      1.87      0.94         0.74
  WS02006249WS02006248        1.77      1.77      1.87      3.85         0.01
  WS02006248WS02006247        1.85      1.85      2.21      0.01         0.01
  WS02006247WS02006245        2.18      2.28      2.18      4.26         2.06
  WS02006245WS02006243        2.25      2.26      2.55      0.31         0.29
  WS02006243WS02006242        2.68      2.68      3.65      0.01         0.01
  WS02006242WS02006240        3.51      3.51      3.78      1.91         0.01
  WS02006240WS02006239        3.55      3.57      3.66      0.80         0.52
  WS02006239WS02006238        3.86      3.88      3.97      0.87         0.64
  WS02006238WS02006235        3.95      3.95      4.04      0.01         0.01
  WS02006235WS02006234        3.60      3.60      3.91      5.98         0.01
  WS02006234WS02006232        3.77      3.77      4.24      0.73         0.71
  WS02006232WS02006231        1.90      1.90      4.24      0.94         0.01
  WS02006231WS02006230        1.34      1.34      2.02      6.18         0.01
  WS02006230WS02006229        4.97      5.09      4.97      6.26         4.97
[...]
  YS02001770YS02001767        5.69      5.69      5.69      0.20         0.65
  YS02001774YS02001770        5.67      5.67      5.74      0.01         0.01
  YS02001779YS02001774        5.56      5.56      5.74      0.01         0.01
  YS02001649YS02001757        5.75      5.75      5.86      0.01         0.01
  YS02001767YS02001765        5.69      5.69      5.72      0.01         0.01
  YS02006561YS02001783        0.99      0.99      1.38      0.01         0.01
  YS02001783YS02001784        1.36      1.38      1.36      1.47         1.27
  YS02001784YS02001785        1.31      1.36      1.31      2.51         1.31
  YS02001788YS02001790        1.26      1.26      2.12      0.01         0.01
  YS02001790YS02001791        2.12      2.12      2.22      1.10         1.08
  YS02001791YS02001793        2.22      2.22      2.57      0.01         0.01
  YS02001910YS02001907        1.28      1.28      1.91      0.01         0.01
  YS02001786YS02001788        1.26      1.31      1.26      2.09         1.26
  YS02001915YS02001910        1.11      1.11      1.28      0.01         0.01
  YS02001918YS02001915        0.94      0.94      1.11      0.01         0.01
  YS02001923YS02001920        0.78      0.78      0.97      0.01         0.01
  YS02001920YS02001918        0.94      0.94      0.97      0.01         0.01
  YS02001629YS02163301        5.67      5.67      5.69      0.01         0.01
  YS02001619YS02001622        5.36      5.36      5.41      0.01         0.01
  YS02001622YS02001625        5.41      5.41      5.64      0.01         0.01
  YS02001625YS02001629        5.38      5.38      5.64      0.01         0.01
  YS02163301YS02001633        5.69      5.69      5.72      0.01         0.01
  YS02163601YS02164001        5.72      5.72      5.75      0.01         0.01
  YS02164001YS02001641        5.72      5.72      5.73      0.01         0.03
  YS02001641YS02001644        5.73      5.73      5.73      1.72         1.88
  YS02001647YS02001649        5.62      5.62      5.75      0.01         0.01
  YS02006553YS02006556        1.51      1.51      1.98      0.01         0.01
  YS02006556YS02006558        1.67      1.67      2.04      0.01         0.01
  YSB6556YSB1171              0.01      0.01      0.07      0.01         0.01
  YS02001907YS02006553        2.53      2.53      2.75      0.01         0.01
  YS02006558YS02006561        1.12      1.47      1.12      2.36         1.12
  YS02001633YS02163601        5.71      5.71      5.75      0.01         0.01
  YS02001644YS02001647        5.62      5.62      5.73      0.01         0.01
  YS02001745YS02001748        0.01      0.01      5.22      0.01         0.01
  YS02001748YS02001751        5.27      5.27      5.37      0.01         0.01
  YS02001751YS02001754        5.36      5.36      5.57      0.01         0.01
  YS02001754YS02001757        5.61      5.61      5.86      0.01         0.01
  YS02001882YS02001884        1.13      1.13      1.15      0.01         0.01
  YS02001884YS02001887        1.19      1.19      1.21      0.01         0.01
  YS02001890YS02001895        1.10      1.10      1.30      0.01         0.01
  YS02001895YS02001898        1.09      1.09      1.10      0.01         0.01
  YS02001898YS02001901        1.11      1.11      1.18      0.01         0.01
  YS02001901YS02001904        1.17      1.17      1.18      0.01         0.01
  YS02001904YS02001907        1.17      1.17      2.01      0.01         0.01
  YS02001887YS02001890        1.24      1.24      1.27      0.16         0.01
  YS02001652YS02001649        5.63      5.63      5.75      0.01         0.01
  YS02001655YS02001652        5.39      5.39      5.61      0.01         0.01
  YS02001658YS02001655        5.25      5.25      5.39      0.01         0.01
  YS02001661YS02001658        0.13      0.13      5.25      0.01         0.01
  YS02001664YS02001661        0.01      0.01      1.37      0.01         0.01
  HS02004881HS02006253        0.01      0.01      1.03      0.01         0.01
  YS02001793JiankangQianchi        2.48      2.48      3.93      0.01         0.01
  YS02001757CaochengTiaoxuchi        5.11      5.11      5.86      0.01         0.01
  
  
  ***************
  Pumping Summary
  ***************
  
  ---------------------------------------------------------------------------------------------------------
                                                  Min       Avg       Max     Total     Power    % Time Off
                        Percent   Number of      Flow      Flow      Flow    Volume     Usage    Pump Curve
  Pump                 Utilized   Start-Ups       LPS       LPS       LPS  10^6 ltr     Kw-hr    Low   High
  ---------------------------------------------------------------------------------------------------------
  CC-Pump-1               61.70           1      0.00    177.08    200.00     3.000      2.89    0.0    0.0
  CC-Pump-2               42.55           4      0.00     87.85    199.93     1.200      1.44    0.0    0.0
  JK-Pump-1               65.95           5      0.00    232.38    300.00     4.200     62.43    0.0    0.0
  JK-Pump-2               53.19           4      0.00    392.12    683.00     6.158     85.64    0.0   95.6
  XR-Pump-1               97.88           2      0.00     94.32     95.00     2.565     25.51    0.0    0.0
  XR-Pump-2               97.88           2      0.00     94.32     95.00     2.565     25.51    0.0    0.0
  XR-Pump-3               95.75           3      0.00     92.32     95.00     2.394     21.76    0.0    0.0
  XR-Pump-4               95.75           3      0.00     92.32     95.00     2.394     21.76    0.0    0.0
  
  
  ***************************
  Link Pollutant Load Summary
  ***************************
  
  ------------------------------------------------------------------------------------------
                                 COD            SS            TN            TP         NH4-N
  Link                            kg            kg            kg            kg            kg
  ------------------------------------------------------------------------------------------
  WS02003066WSF200           907.573      1694.152        23.475         2.035        12.320
  WS02006287WS02006284       319.508       608.175        10.316         1.015         5.679
  WS02006284WS02006280       319.996       608.977        10.362         1.021         5.708
  WS02006280WS02006229       319.936       608.856        10.359         1.021         5.707
  WS02006229WS02006228       899.127      1678.883        22.791         1.947        11.895
  WS02006256WS02006235       208.011       384.275         4.609         0.360         2.333
  WS02006253WS02006251        62.158       122.004         1.393         0.106         0.694
  WS02006252WS02006251       361.855       663.332         7.533         0.541         3.703
  WS02006251WS02006249       416.594       771.866         8.783         0.638         4.330
  WS02006249WS02006248       375.136       692.857         7.929         0.576         3.911
  WS02006248WS02006247       375.059       692.730         7.926         0.576         3.910
  WS02006247WS02006245       374.893       692.425         7.921         0.575         3.907
  WS02006245WS02006243       374.584       691.954         7.908         0.574         3.900
  WS02006243WS02006242       374.627       692.040         7.908         0.574         3.899
  WS02006242WS02006240       374.231       691.305         7.903         0.574         3.898
  WS02006240WS02006239       374.818       692.325         7.929         0.576         3.913
  WS02006239WS02006238       376.530       695.207         8.003         0.584         3.955
  WS02006238WS02006235       377.080       695.999         8.032         0.588         3.973
  WS02006235WS02006234       580.231      1071.829        12.465         0.930         6.207
  WS02006234WS02006232       580.321      1071.963        12.473         0.931         6.212
  WS02006232WS02006231       580.150      1071.658        12.468         0.930         6.209
  WS02006231WS02006230       579.926      1071.229        12.465         0.930         6.208
  WS02006230WS02006229       579.606      1070.723        12.451         0.929         6.200
  WS02006228WS02006109       898.945      1678.573        22.781         1.946        11.890
  WS02006116WS02004401       916.299      1709.852        23.688         2.052        12.429
  WS02006115WS02006116       916.972      1711.028        23.711         2.054        12.442
  WS02006113WS02006111       906.235      1690.059        23.543         2.042        12.368
  WS02006112WS02006115       917.719      1712.311        23.743         2.057        12.461
  WS02006111WS02006112       906.012      1689.688        23.534         2.041        12.363
  WS02006110WS02006113       906.609      1690.715        23.560         2.044        12.378
  WS02006109WS02006110       907.277      1691.885        23.592         2.047        12.397
  WS02004411WS02004412       910.555      1699.427        23.583         2.046        12.380
  WS02004401WS02004402       915.496      1708.450        23.657         2.049        12.411
  WS02004413WS02003067       908.155      1695.237        23.489         2.036        12.327
  WS02004412WS02004413       909.520      1697.605        23.548         2.042        12.361
  WS02004410WS02004411       911.391      1700.919        23.609         2.048        12.395
  WS02004409WS02004410       912.242      1702.423        23.638         2.051        12.411
  WS02004407WS02004409       912.894      1703.591        23.656         2.052        12.420
  WS02004406WS02004407       913.044      1703.891        23.655         2.052        12.419
  WS02004405WS02004406       914.194      1705.914        23.703         2.057        12.447
  WS02004404WS02004405       914.713      1706.891        23.697         2.055        12.441
  WS02004403WS02004404       914.059      1705.925        23.605         2.043        12.382
  WS02004402WS02004403       914.785      1707.198        23.632         2.046        12.398
  WS02004139WS02001211      1382.658      2295.680       112.254        13.703        69.195
  WS02004138WS02004139      1388.955      2306.200       112.740        13.761        69.493
  WS02003067WS02003066       907.768      1694.507        23.482         2.036        12.324
  WS02001213WS02003059      1415.747      2347.657       115.688        14.136        71.353
  WS02001212WS02001213      1424.880      2362.791       116.428        14.226        71.809
  WS02001211WS02001212      1426.992      2366.244       116.609        14.249        71.921
  WS02003072WS02003073      2423.543      4200.981       149.142        17.424        89.924
  WS02003069WS02003072      2428.534      4209.144       149.557        17.475        90.181
  WS02003060WS02003069      2431.104      4213.582       149.703        17.491        90.268
  WS02003059WS02003060      1412.674      2342.448       115.471        14.110        71.221
  HS02004901HS02004770        13.095        25.475         0.248         0.019         0.116
  HS02004876HS02004881        45.518        90.354         0.999         0.073         0.491
  HS02004870HS02004876        34.384        68.109         0.798         0.060         0.395
  HS02004842HS02004848         6.456        12.343         0.134         0.009         0.062
  HS02004837HS02004842        11.056        19.635         0.603         0.068         0.356
  HS02004830HS02004837        70.299       122.729         4.644         0.552         2.827
  HS02004824HS02004830        71.071       123.986         4.715         0.561         2.871
  HS02004817HS02004824        97.167       176.413         5.255         0.596         3.135
  HS02004770HS02004777        49.664        97.717         1.021         0.069         0.472
  HS02004799HS02004480       162.333       310.857         4.263         0.379         2.209
  HS02004792HS02004799       147.280       280.137         4.028         0.367         2.105
  HS02004788HS02004792        82.820       157.693         2.666         0.255         1.440
  HS02004785HS02004788        51.123       100.054         1.172         0.089         0.567
  HS02004777HS02004785        50.447        98.947         1.112         0.081         0.530
  HS02004480HS02004478       204.833       395.214         4.972         0.429         2.543
  HS02004479HS02004480        46.129        90.117         1.037         0.091         0.538
  HS02004862HS02004870        25.801        50.342         0.628         0.050         0.314
  HS02004848HS02004852        10.252        19.885         0.210         0.014         0.097
  HS02004856HS02004862        17.525        34.751         0.350         0.023         0.164
  HS02004852HS02004856        10.256        19.890         0.210         0.014         0.097
  HS02004802HS02004478       115.346       214.060         5.398         0.592         3.169
  HS02004478WS02006287       319.717       608.537        10.333         1.017         5.690
  HS02004817HS02004807        95.862       174.319         5.130         0.581         3.057
  HS02004807HS02004802       115.602       214.461         5.430         0.596         3.190
  YS02001759YS02001757       364.736       670.692         7.271         0.505         3.551
  YS02001762YS02001759       171.432       314.418         3.636         0.256         1.799
  YS02001765YS02001762       171.993       316.045         3.666         0.259         1.816
  YS02001770YS02001767       172.989       319.814         3.496         0.232         1.699
  YS02001774YS02001770       250.695       489.167         4.810         0.320         2.324
  YS02001779YS02001774       249.667       487.102         4.893         0.333         2.383
  YS02001649YS02001757       324.342       584.471         6.502         0.451         3.122
  YS02001767YS02001765       173.116       318.711         3.700         0.261         1.834
  YS02006561YS02001783      1017.568      1885.875        21.343         1.593        10.622
  YS02001783YS02001784      1017.437      1885.666        21.339         1.593        10.620
  YS02001784YS02001785      1024.744      1897.364        22.052         1.682        11.066
  YS02001788YS02001790      1025.300      1898.256        22.123         1.692        11.111
  YS02001790YS02001791      1026.254      1899.784        22.222         1.704        11.173
  YS02001791YS02001793      1026.131      1899.573        22.216         1.703        11.170
  YS02001910YS02001907       391.158       721.494         9.386         0.718         4.809
  YS02001786YS02001788      1024.906      1897.621        22.079         1.686        11.083
  YS02001915YS02001910       391.229       721.613         9.338         0.711         4.777
  YS02001918YS02001915       189.241       334.190         5.194         0.471         2.794
  YS02001923YS02001920       166.645       296.918         3.205         0.226         1.558
  YS02001926YS02001923       164.756       293.695         3.110         0.215         1.502
  YS02001929YS02001926       164.170       292.703         3.065         0.210         1.474
  YS02001920YS02001918       187.017       329.694         5.123         0.465         2.756
  YS02001629YS02163301        96.088       169.902         2.028         0.131         0.946
  YS02001619YS02001622       175.879       321.144         3.602         0.236         1.684
  YS02001622YS02001625       174.694       319.259         3.573         0.234         1.671
  YS02001625YS02001629        97.173       171.678         2.053         0.132         0.957
  YS02163301YS02001633        96.449       170.770         2.031         0.132         0.948
  YS02163601YS02164001       405.684       733.074         7.898         0.562         3.783
  YS02164001YS02001641       405.138       732.145         7.877         0.560         3.772
  YS02001641YS02001644       405.188       732.146         7.873         0.560         3.769
  YS02001647YS02001649       417.244       765.820         8.228         0.574         3.925
  YS02006553YS02006556       683.725      1256.452        14.719         1.128         7.410
  YS02006556YS02006558       683.617      1256.236        14.689         1.123         7.390
  YSB6556YSB1171              26.522        51.969         0.537         0.045         0.272
  YS02001907YS02006553       683.850      1256.710        14.727         1.129         7.415
  YS02006558YS02006561      1017.534      1885.807        21.342         1.593        10.621
  YS02001633YS02163601       406.418       734.221         7.879         0.558         3.767
  YS02001644YS02001647       423.464       777.004         8.332         0.581         3.973
  YS02001745YS02001748       249.751       466.991         5.481         0.378         2.722
  YS02001748YS02001751       247.983       463.595         5.536         0.389         2.766
  YS02001751YS02001754       247.207       462.280         5.546         0.392         2.776
  YS02001754YS02001757       247.959       463.402         5.711         0.415         2.883
  YS02001882YS02001884         2.981         5.145         0.060         0.005         0.030
  YS02001884YS02001887         6.990        12.357         0.138         0.011         0.069
  YS02001890YS02001895       450.940       846.402         8.301         0.624         4.049
  YS02001895YS02001898       450.777       846.188         8.295         0.624         4.046
  YS02001898YS02001901       450.576       845.845         8.290         0.623         4.043
  YS02001901YS02001904       450.416       845.621         8.297         0.624         4.048
  YS02001904YS02001907       450.605       845.905         8.349         0.631         4.082
  YS02001887YS02001890       468.253       880.732         8.645         0.653         4.223
  YS02001652YS02001649       195.964       365.021         3.938         0.284         1.848
  YS02001655YS02001652       196.452       365.828         3.950         0.285         1.854
  YS02001658YS02001655       195.887       364.955         3.862         0.273         1.797
  YS02001661YS02001658       199.101       370.739         3.926         0.278         1.826
  YS02001664YS02001661       218.107       401.951         4.357         0.307         2.023
  YSB1154YSB6556              26.086        51.273         0.486         0.038         0.239
  YSB1174YSB1171              18.022        35.564         0.361         0.029         0.181
  YSB1171HS02004479           46.093        90.061         1.040         0.092         0.540
  HS02004881HS02006253        51.665       102.991         1.105         0.080         0.541
  YS02001793JiankangQianchi      1026.670      1900.491        22.242         1.706        11.185
  YS02001757CaochengTiaoxuchi       637.539      1154.422        13.440         0.958         6.604
  WSF200WS02003060           907.308      1693.641        23.474         2.035        12.320
  1                         2429.824      4210.144       149.981        17.532        90.459
  CC-Pump-1                  257.562       472.018         5.362         0.385         2.636
  CC-Pump-2                  104.283       191.297         2.170         0.156         1.067
  JK-Pump-1                  284.045       529.434         6.037         0.458         3.021
  JK-Pump-2                  518.184       979.198        10.749         0.810         5.353
  XR-Pump-1                  365.128       605.246        29.876         3.651        18.428
  XR-Pump-2                  365.128       605.246        29.876         3.651        18.428
  XR-Pump-3                  331.182       550.883        26.645         3.248        16.411
  XR-Pump-4                  331.182       550.883        26.645         3.248        16.411
  

  Analysis begun on:  Sun Jun 13 15:51:38 2021
  Analysis ended on:  Sun Jun 13 15:51:42 2021
  Total elapsed time: 00:00:04