
  EPA STORM WATER MANAGEMENT MODEL - VERSION 5.1 (Build 5.3.0.dev0)
  --------------------------------------------------------------

  WARNING 09: time series interval greater than recording interval for Rain Gage RG1
  WARNING 09: time series interval greater than recording interval for Rain Gage RG2
  WARNING 09: time series interval greater than recording interval for Rain Gage RG3
  WARNING 09: time series interval greater than recording interval for Rain Gage RG4
  
  *********************************************************
  NOTE: The summary statistics displayed in this report are
  based on results found at every computational time step,  
  not just on results from each reporting time step.
  *********************************************************
  
  ****************
  Analysis Options
  ****************
  Flow Units ............... CMS
  Process Models:
    Rainfall/Runoff ........ YES
    RDII ................... NO
    Snowmelt ............... NO
    Groundwater ............ NO
    Flow Routing ........... YES
    Ponding Allowed ........ YES
    Water Quality .......... NO
  Infiltration Method ...... HORTON
  Flow Routing Method ...... DYNWAVE
  Surcharge Method ......... EXTRAN
  Starting Date ............ 08/28/2015 00:00:00
  Ending Date .............. 08/28/2015 23:50:00
  Antecedent Dry Days ...... 0.0
  Report Time Step ......... 00:01:00
  Wet Time Step ............ 00:01:00
  Dry Time Step ............ 00:01:00
  Routing Time Step ........ 5.00 sec
  Variable Time Step ....... YES
  Maximum Trials ........... 8
  Number of Threads ........ 1
  Head Tolerance ........... 0.001500 m
  
  
  **************************        Volume         Depth
  Runoff Quantity Continuity     hectare-m            mm
  **************************     ---------       -------
  Total Precipitation ......         2.669        14.810
  Evaporation Loss .........         0.000         0.000
  Infiltration Loss ........         0.000         0.000
  Surface Runoff ...........         2.616        14.520
  Final Storage ............         0.054         0.301
  Continuity Error (%) .....        -0.072
  
  
  **************************        Volume        Volume
  Flow Routing Continuity        hectare-m      10^6 ltr
  **************************     ---------     ---------
  Dry Weather Inflow .......         0.759         7.586
  Wet Weather Inflow .......         2.616        26.162
  Groundwater Inflow .......         0.000         0.000
  RDII Inflow ..............         0.000         0.000
  External Inflow ..........         0.000         0.000
  External Outflow .........         1.854        18.537
  Flooding Loss ............         0.509         5.093
  Evaporation Loss .........         0.000         0.000
  Exfiltration Loss ........         0.000         0.000
  Initial Stored Volume ....         0.000         0.000
  Final Stored Volume ......         0.787         7.875
  Continuity Error (%) .....         6.647
  
  
  *************************
  Highest Continuity Errors
  *************************
  Node T2 (20.77%)
  Node T4 (13.80%)
  Node T3 (11.17%)
  Node T5 (8.29%)
  Node T6 (7.67%)
  
  
  ***************************
  Time-Step Critical Elements
  ***************************
  None
  
  
  ********************************
  Highest Flow Instability Indexes
  ********************************
  Link C15 (1)
  
  
  *************************
  Routing Time Step Summary
  *************************
  Minimum Time Step           :     3.50 sec
  Average Time Step           :     5.00 sec
  Maximum Time Step           :     5.00 sec
  Percent in Steady State     :     0.00
  Average Iterations per Step :     2.01
  Percent Not Converging      :     0.02
  
  
  ***************************
  Subcatchment Runoff Summary
  ***************************
  
  ------------------------------------------------------------------------------------------------------------------------------
                            Total      Total      Total      Total     Imperv       Perv      Total       Total     Peak  Runoff
                           Precip      Runon       Evap      Infil     Runoff     Runoff     Runoff      Runoff   Runoff   Coeff
  Subcatchment                 mm         mm         mm         mm         mm         mm         mm    10^6 ltr      CMS
  ------------------------------------------------------------------------------------------------------------------------------
  SC01                      13.55       0.00       0.00       0.00      13.29       0.00      13.29        4.39     0.47   0.981
  SC02                      16.35       0.00       0.00       0.00      16.01       0.00      16.01        3.64     0.25   0.979
  SC03                      16.46       0.00       0.00       0.00      16.33       0.00      16.33        2.94     0.35   0.992
  SC04                      16.35       0.00       0.00       0.00      15.72       0.00      15.72        1.08     0.05   0.961
  SC05                      13.55       0.00       0.00       0.00      13.27       0.00      13.27        2.07     0.20   0.979
  SC06                      13.47       0.00       0.00       0.00      13.18       0.00      13.18        4.29     0.17   0.978
  SC07                      16.35       0.00       0.00       0.00      15.72       0.00      15.72        0.75     0.03   0.962
  SC08                      16.46       0.00       0.00       0.00      16.20       0.00      16.20        4.54     0.39   0.984
  SC09                      13.47       0.00       0.00       0.00      13.27       0.00      13.27        0.92     0.04   0.985
  SC010                     13.55       0.00       0.00       0.00      13.21       0.00      13.21        1.55     0.12   0.975
  
  
  ******************
  Node Depth Summary
  ******************
  
  ---------------------------------------------------------------------------------
                                 Average  Maximum  Maximum  Time of Max    Reported
                                   Depth    Depth      HGL   Occurrence   Max Depth
  Node                 Type       Meters   Meters   Meters  days hr:min      Meters
  ---------------------------------------------------------------------------------
  J1                   JUNCTION     0.06     0.14    34.14     0  00:17        0.14
  J3                   JUNCTION     0.11     0.14    18.14     0  10:30        0.14
  CSO7                 JUNCTION     0.09     0.14    34.14     0  06:51        0.14
  J5                   JUNCTION     0.06     0.10    32.10     0  00:43        0.10
  CSO9                 JUNCTION     0.09     0.18    40.18     0  06:31        0.18
  J8                   JUNCTION     0.10     0.16    36.16     0  06:32        0.16
  CSO8                 JUNCTION     0.13     2.00    34.00     0  00:36        0.83
  J10                  JUNCTION     0.09     0.23    29.23     0  00:39        0.23
  J13                  JUNCTION     0.06     0.13    29.13     0  00:22        0.13
  J15                  JUNCTION     0.16     0.23    15.23     0  00:28        0.23
  J16                  JUNCTION     0.06     0.16    30.16     0  00:17        0.16
  CSO10                JUNCTION     0.11     0.29    30.29     0  00:17        0.29
  J12                  JUNCTION     0.70     1.01    27.01     0  14:36        1.01
  J4                   JUNCTION     0.11     0.17    33.17     0  07:48        0.17
  J6                   JUNCTION     0.06     0.07    25.07     0  10:00        0.07
  J2                   JUNCTION     0.07     0.08    25.08     0  08:57        0.08
  J19                  JUNCTION     0.15     0.17     8.17     0  07:44        0.17
  J9                   JUNCTION     0.09     0.11    29.11     0  09:20        0.11
  J14                  JUNCTION     0.12     0.15    20.15     0  23:31        0.15
  J17                  JUNCTION     0.06     0.08    20.08     0  18:30        0.08
  J7                   JUNCTION     0.07     0.13    39.13     0  06:33        0.13
  J11                  JUNCTION     0.10     0.24    31.24     0  00:40        0.24
  J18                  JUNCTION     0.05     0.12    29.12     0  00:22        0.12
  Out_to_WWTP          OUTFALL      0.15     0.17     6.17     0  07:42        0.17
  T5                   STORAGE      3.22     4.54    31.54     0  08:55        4.54
  T4                   STORAGE      3.88     5.00    32.00     0  09:21        5.00
  T6                   STORAGE      4.27     5.00    36.00     0  06:18        5.00
  T3                   STORAGE      4.12     5.00    27.00     0  10:10        5.00
  T2                   STORAGE      3.98     5.00    26.00     0  09:02        5.00
  T1                   STORAGE      3.31     5.00    15.00     0  07:43        5.00
  
  
  *******************
  Node Inflow Summary
  *******************
  
  -------------------------------------------------------------------------------------------------
                                  Maximum  Maximum                  Lateral       Total        Flow
                                  Lateral    Total  Time of Max      Inflow      Inflow     Balance
                                   Inflow   Inflow   Occurrence      Volume      Volume       Error
  Node                 Type           CMS      CMS  days hr:min    10^6 ltr    10^6 ltr     Percent
  -------------------------------------------------------------------------------------------------
  J1                   JUNCTION     0.205    0.205     0  00:16        3.16        3.16      -0.067
  J3                   JUNCTION     0.000    0.189     0  10:25           0        10.8       0.336
  CSO7                 JUNCTION     0.037    0.037     0  06:51        1.31        1.31       0.029
  J5                   JUNCTION     0.051    0.081     0  00:41        1.33        2.64       0.044
  CSO9                 JUNCTION     0.047    0.047     0  06:31         1.3         1.3       0.008
  J8                   JUNCTION     0.195    0.237     0  06:31        6.12        7.42      -0.038
  CSO8                 JUNCTION     0.390    0.390     0  00:36        4.98        4.98       0.000
  J10                  JUNCTION     0.349    0.578     0  00:37        3.69        8.67      -0.025
  J13                  JUNCTION     0.255    0.255     0  00:21        4.55        4.55      -0.095
  J15                  JUNCTION     0.000    0.513     0  00:17           0        19.7       0.421
  J16                  JUNCTION     0.469    0.469     0  00:16        5.46        5.46      -0.029
  CSO10                JUNCTION     0.122    0.122     0  00:16        1.82        1.82       0.030
  J12                  JUNCTION     0.000    0.577     0  00:39           0        13.1       6.155
  J4                   JUNCTION     0.000    0.036     0  06:51           0        1.31       0.249
  J6                   JUNCTION     0.000    0.028     0  09:40           0        1.62       0.171
  J2                   JUNCTION     0.000    0.037     0  08:55           0        2.65       0.156
  J19                  JUNCTION     0.000    0.271     0  07:43           0        18.5       0.057
  J9                   JUNCTION     0.000    0.075     0  06:18           0        4.45       0.380
  J14                  JUNCTION     0.000    0.124     0  10:22           0        6.55       0.105
  J17                  JUNCTION     0.000    0.033     0  11:28           0        1.69       0.415
  J7                   JUNCTION     0.000    0.046     0  06:32           0         1.3       0.136
  J11                  JUNCTION     0.000    0.384     0  00:36           0        4.98       0.161
  J18                  JUNCTION     0.000    0.114     0  00:17           0        1.82       0.088
  Out_to_WWTP          OUTFALL      0.000    0.271     0  07:45           0        18.5       0.000
  T5                   STORAGE      0.000    0.185     0  00:17           0        3.17       9.045
  T4                   STORAGE      0.000    0.079     0  00:43           0        2.64      16.016
  T6                   STORAGE      0.000    0.229     0  06:32           0        7.42       8.302
  T3                   STORAGE      0.000    0.553     0  00:43           0        12.3      12.569
  T2                   STORAGE      0.000    0.234     0  00:22           0        4.56      26.215
  T1                   STORAGE      0.000    0.442     0  00:28           0        19.6       2.757
  
  
  **********************
  Node Surcharge Summary
  **********************
  
  Surcharging occurs when water rises above the top of the highest conduit.
  ---------------------------------------------------------------------
                                               Max. Height   Min. Depth
                                   Hours       Above Crown    Below Rim
  Node                 Type      Surcharged         Meters       Meters
  ---------------------------------------------------------------------
  CSO8                 JUNCTION        0.06          1.547        0.000
  
  
  *********************
  Node Flooding Summary
  *********************
  
  Flooding refers to all water that overflows a node, whether it ponds or not.
  --------------------------------------------------------------------------
                                                             Total   Maximum
                                 Maximum   Time of Max       Flood    Ponded
                        Hours       Rate    Occurrence      Volume     Depth
  Node                 Flooded       CMS   days hr:min    10^6 ltr    Meters
  --------------------------------------------------------------------------
  CSO8                    0.01     0.049      0  00:36       0.000     0.000
  T4                      4.01     0.034      0  22:20       0.162     0.000
  T6                     10.98     0.183      0  06:52       2.009     0.000
  T3                      6.60     0.210      0  21:53       1.845     0.000
  T2                     11.11     0.117      0  22:07       0.931     0.000
  T1                      0.95     0.077      0  07:43       0.146     0.000
  
  
  **********************
  Storage Volume Summary
  **********************
  
  --------------------------------------------------------------------------------------------------
                         Average     Avg  Evap Exfil       Maximum     Max    Time of Max    Maximum
                          Volume    Pcnt  Pcnt  Pcnt        Volume    Pcnt     Occurrence    Outflow
  Storage Unit           1000 m3    Full  Loss  Loss       1000 m3    Full    days hr:min        CMS
  --------------------------------------------------------------------------------------------------
  T5                       0.322      64     0     0         0.454      91       0  08:55      0.037
  T4                       0.388      78     0     0         0.500     100       0  09:21      0.028
  T6                       0.512      85     0     0         0.600     100       0  06:18      0.075
  T3                       2.142      82     0     0         2.600     100       0  10:10      0.124
  T2                       0.796      80     0     0         1.000     100       0  09:02      0.033
  T1                       0.463      66     0     0         0.700     100       0  07:43      0.271
  
  
  ***********************
  Outfall Loading Summary
  ***********************
  
  -----------------------------------------------------------
                         Flow       Avg       Max       Total
                         Freq      Flow      Flow      Volume
  Outfall Node           Pcnt       CMS       CMS    10^6 ltr
  -----------------------------------------------------------
  Out_to_WWTP           99.46     0.217     0.271      18.537
  -----------------------------------------------------------
  System                99.46     0.217     0.271      18.537
  
  
  ********************
  Link Flow Summary
  ********************
  
  -----------------------------------------------------------------------------
                                 Maximum  Time of Max   Maximum    Max/    Max/
                                  |Flow|   Occurrence   |Veloc|    Full    Full
  Link                 Type          CMS  days hr:min     m/sec    Flow   Depth
  -----------------------------------------------------------------------------
  C1                   CONDUIT     0.037     0  08:57      1.13    0.01    0.11
  C6                   CONDUIT     0.034     0  07:48      1.14    0.55    0.44
  C2                   CONDUIT     0.028     0  10:00      1.03    0.03    0.17
  C9                   CONDUIT     0.044     0  06:33      0.93    0.15    0.29
  C16                  CONDUIT     0.320     0  00:40      1.55    0.03    0.12
  C3                   CONDUIT     0.124     0  12:32      1.87    0.05    0.14
  C19                  CONDUIT     0.033     0  18:30      0.69    0.01    0.14
  C11                  CONDUIT     0.189     0  10:31      1.76    0.01    0.09
  C20                  CONDUIT     0.431     0  00:17      3.83    0.01    0.09
  C22                  CONDUIT     0.105     0  00:22      1.44    0.05    0.21
  C12                  CONDUIT     0.075     0  09:20      0.94    0.01    0.28
  C17                  CONDUIT     0.553     0  00:39      2.74    0.03    0.29
  C10                  CONDUIT     0.229     0  06:32      1.89    0.02    0.55
  C13                  CONDUIT     0.553     0  00:43      2.85    0.03    0.75
  C18                  CONDUIT     0.234     0  00:22      2.98    0.01    0.53
  C23                  CONDUIT     0.442     0  00:28      2.53    0.05    0.57
  C4                   CONDUIT     0.185     0  00:17      2.95    0.04    0.56
  C7                   CONDUIT     0.079     0  00:43      1.90    0.02    0.55
  C14                  CONDUIT     0.271     0  07:45      2.08    0.02    0.09
  C5                   CONDUIT     0.036     0  06:51      1.26    0.61    0.61
  C8                   CONDUIT     0.046     0  06:32      1.21    0.58    0.49
  C15                  CONDUIT     0.384     0  00:36      3.03    1.22    0.77
  C21                  CONDUIT     0.114     0  00:17      1.75    0.65    0.45
  V4                   ORIFICE     0.028     0  09:40                      0.35
  V5                   ORIFICE     0.037     0  08:55                      1.00
  V1                   ORIFICE     0.271     0  07:43                      1.00
  V6                   ORIFICE     0.075     0  06:18                      0.43
  V3                   ORIFICE     0.124     0  10:22                      0.65
  V2                   ORIFICE     0.033     0  11:28                      0.24
  
  
  ***************************
  Flow Classification Summary
  ***************************
  
  -------------------------------------------------------------------------------------
                      Adjusted    ---------- Fraction of Time in Flow Class ---------- 
                       /Actual         Up    Down  Sub   Sup   Up    Down  Norm  Inlet 
  Conduit               Length    Dry  Dry   Dry   Crit  Crit  Crit  Crit  Ltd   Ctrl  
  -------------------------------------------------------------------------------------
  C1                      1.00   0.00  0.00  0.00  0.20  0.80  0.00  0.00  0.98  0.00
  C6                      1.00   0.00  0.00  0.00  0.01  0.99  0.00  0.00  0.00  0.00
  C2                      1.00   0.00  0.00  0.00  0.59  0.41  0.00  0.00  0.99  0.00
  C9                      1.00   0.00  0.00  0.00  1.00  0.00  0.00  0.00  1.00  0.00
  C16                     1.00   0.00  0.00  0.00  0.21  0.79  0.00  0.00  0.21  0.00
  C3                      1.00   0.00  0.00  0.00  0.01  0.99  0.00  0.00  0.45  0.00
  C19                     1.00   0.00  0.00  0.00  1.00  0.00  0.00  0.00  1.00  0.00
  C11                     1.00   0.00  0.00  0.00  0.11  0.89  0.00  0.00  1.00  0.00
  C20                     1.00   0.00  0.00  0.00  0.71  0.29  0.00  0.00  0.99  0.00
  C22                     1.00   0.00  0.00  0.00  0.96  0.04  0.00  0.00  1.00  0.00
  C12                     1.00   0.00  0.00  0.00  0.97  0.03  0.00  0.00  1.00  0.00
  C17                     1.00   0.00  0.00  0.00  0.69  0.31  0.00  0.00  0.99  0.00
  C10                     1.00   0.00  0.00  0.00  0.99  0.01  0.00  0.00  0.99  0.00
  C13                     1.00   0.00  0.00  0.00  0.98  0.02  0.00  0.00  0.28  0.00
  C18                     1.00   0.00  0.00  0.00  0.98  0.02  0.00  0.00  0.99  0.00
  C23                     1.00   0.00  0.00  0.00  0.98  0.02  0.00  0.00  0.99  0.00
  C4                      1.00   0.00  0.00  0.00  0.99  0.01  0.00  0.00  0.99  0.00
  C7                      1.00   0.00  0.00  0.00  0.98  0.02  0.00  0.00  0.98  0.00
  C14                     1.00   0.00  0.00  0.00  0.00  1.00  0.00  0.00  0.51  0.00
  C5                      1.00   0.00  0.00  0.00  0.87  0.13  0.00  0.00  0.98  0.00
  C8                      1.00   0.00  0.00  0.00  0.06  0.94  0.00  0.00  0.00  0.00
  C15                     1.00   0.00  0.00  0.00  0.00  1.00  0.00  0.00  0.00  0.00
  C21                     1.00   0.00  0.00  0.00  0.00  1.00  0.00  0.00  0.00  0.00
  
  
  *************************
  Conduit Surcharge Summary
  *************************
  
  ----------------------------------------------------------------------------
                                                           Hours        Hours 
                         --------- Hours Full --------   Above Full   Capacity
  Conduit                Both Ends  Upstream  Dnstream   Normal Flow   Limited
  ----------------------------------------------------------------------------
  C10                         0.01      0.01     22.65      0.01         0.01
  C13                         0.01      0.01     20.25      0.01         0.01
  C18                         0.01      0.01     19.26      0.01         0.01
  C23                         0.01      0.01     23.10      0.01         0.01
  C4                          0.01      0.01     23.16      0.01         0.01
  C7                          0.01      0.01     22.58      0.01         0.01
  C15                         0.01      0.06      0.01      0.07         0.01
  

  Analysis begun on:  Mon Sep 20 12:01:20 2021
  Analysis ended on:  Mon Sep 20 12:01:20 2021
  Total elapsed time: < 1 sec