
  EPA STORM WATER MANAGEMENT MODEL - VERSION 5.1 (Build 5.3.0.dev0)
  --------------------------------------------------------------

  WARNING 09: time series interval greater than recording interval for Rain Gage RG1
  WARNING 09: time series interval greater than recording interval for Rain Gage RG2
  WARNING 09: time series interval greater than recording interval for Rain Gage RG3
  WARNING 09: time series interval greater than recording interval for Rain Gage RG4
  
  *********************************************************
  NOTE: The summary statistics displayed in this report are
  based on results found at every computational time step,  
  not just on results from each reporting time step.
  *********************************************************
  
  ****************
  Analysis Options
  ****************
  Flow Units ............... CMS
  Process Models:
    Rainfall/Runoff ........ YES
    RDII ................... NO
    Snowmelt ............... NO
    Groundwater ............ NO
    Flow Routing ........... YES
    Ponding Allowed ........ YES
    Water Quality .......... NO
  Infiltration Method ...... HORTON
  Flow Routing Method ...... DYNWAVE
  Surcharge Method ......... EXTRAN
  Starting Date ............ 08/28/2015 00:00:00
  Ending Date .............. 08/28/2015 23:50:00
  Antecedent Dry Days ...... 0.0
  Report Time Step ......... 00:01:00
  Wet Time Step ............ 00:01:00
  Dry Time Step ............ 00:01:00
  Routing Time Step ........ 5.00 sec
  Variable Time Step ....... YES
  Maximum Trials ........... 8
  Number of Threads ........ 1
  Head Tolerance ........... 0.001500 m
  
  
  **************************        Volume         Depth
  Runoff Quantity Continuity     hectare-m            mm
  **************************     ---------       -------
  Total Precipitation ......         2.227        12.360
  Evaporation Loss .........         0.000         0.000
  Infiltration Loss ........         0.000         0.000
  Surface Runoff ...........         2.205        12.235
  Final Storage ............         0.024         0.131
  Continuity Error (%) .....        -0.048
  
  
  **************************        Volume        Volume
  Flow Routing Continuity        hectare-m      10^6 ltr
  **************************     ---------     ---------
  Dry Weather Inflow .......         0.759         7.586
  Wet Weather Inflow .......         2.205        22.048
  Groundwater Inflow .......         0.000         0.000
  RDII Inflow ..............         0.000         0.000
  External Inflow ..........         0.000         0.000
  External Outflow .........         1.383        13.827
  Flooding Loss ............         0.601         6.015
  Evaporation Loss .........         0.000         0.000
  Exfiltration Loss ........         0.000         0.000
  Initial Stored Volume ....         0.000         0.000
  Final Stored Volume ......         0.755         7.548
  Continuity Error (%) .....         7.573
  
  
  *************************
  Highest Continuity Errors
  *************************
  Node T2 (21.32%)
  Node T3 (14.88%)
  Node T4 (12.57%)
  Node T5 (11.11%)
  Node T6 (9.95%)
  
  
  ***************************
  Time-Step Critical Elements
  ***************************
  None
  
  
  ********************************
  Highest Flow Instability Indexes
  ********************************
  Link C15 (1)
  
  
  *************************
  Routing Time Step Summary
  *************************
  Minimum Time Step           :     3.50 sec
  Average Time Step           :     5.00 sec
  Maximum Time Step           :     5.00 sec
  Percent in Steady State     :     0.00
  Average Iterations per Step :     2.00
  Percent Not Converging      :     0.00
  
  
  ***************************
  Subcatchment Runoff Summary
  ***************************
  
  ------------------------------------------------------------------------------------------------------------------------------
                            Total      Total      Total      Total     Imperv       Perv      Total       Total     Peak  Runoff
                           Precip      Runon       Evap      Infil     Runoff     Runoff     Runoff      Runoff   Runoff   Coeff
  Subcatchment                 mm         mm         mm         mm         mm         mm         mm    10^6 ltr      CMS
  ------------------------------------------------------------------------------------------------------------------------------
  SC01                      11.23       0.00       0.00       0.00      11.15       0.00      11.15        3.68     0.50   0.993
  SC02                      13.95       0.00       0.00       0.00      13.86       0.00      13.86        3.15     0.33   0.994
  SC03                      12.07       0.00       0.00       0.00      12.01       0.00      12.01        2.16     0.17   0.995
  SC04                      13.95       0.00       0.00       0.00      13.76       0.00      13.76        0.95     0.08   0.987
  SC05                      11.23       0.00       0.00       0.00      11.15       0.00      11.15        1.74     0.23   0.993
  SC06                      13.04       0.00       0.00       0.00      12.80       0.00      12.80        4.16     0.30   0.981
  SC07                      13.95       0.00       0.00       0.00      13.76       0.00      13.76        0.65     0.05   0.987
  SC08                      12.07       0.00       0.00       0.00      11.96       0.00      11.96        3.35     0.18   0.990
  SC09                      13.04       0.00       0.00       0.00      12.89       0.00      12.89        0.89     0.08   0.988
  SC010                     11.23       0.00       0.00       0.00      11.13       0.00      11.13        1.31     0.16   0.991
  
  
  ******************
  Node Depth Summary
  ******************
  
  ---------------------------------------------------------------------------------
                                 Average  Maximum  Maximum  Time of Max    Reported
                                   Depth    Depth      HGL   Occurrence   Max Depth
  Node                 Type       Meters   Meters   Meters  days hr:min      Meters
  ---------------------------------------------------------------------------------
  J1                   JUNCTION     0.06     0.16    34.16     0  09:51        0.16
  J3                   JUNCTION     0.09     0.14    18.14     0  18:40        0.14
  CSO7                 JUNCTION     0.08     0.22    34.22     0  10:01        0.22
  J5                   JUNCTION     0.05     0.12    32.12     0  10:07        0.12
  CSO9                 JUNCTION     0.09     0.29    40.29     0  09:57        0.29
  J8                   JUNCTION     0.09     0.21    36.21     0  10:07        0.20
  CSO8                 JUNCTION     0.09     0.27    32.27     0  09:46        0.26
  J10                  JUNCTION     0.07     0.17    29.17     0  09:42        0.17
  J13                  JUNCTION     0.05     0.15    29.15     0  09:51        0.15
  J15                  JUNCTION     0.13     0.28    15.28     0  09:53        0.28
  J16                  JUNCTION     0.05     0.17    30.17     0  09:46        0.17
  CSO10                JUNCTION     0.09     0.35    30.35     0  09:51        0.35
  J12                  JUNCTION     0.35     1.01    27.01     0  18:25        1.01
  J4                   JUNCTION     0.10     0.25    33.25     0  10:08        0.25
  J6                   JUNCTION     0.05     0.07    25.07     0  19:07        0.07
  J2                   JUNCTION     0.06     0.08    25.08     0  17:53        0.08
  J19                  JUNCTION     0.12     0.17     8.17     0  10:39        0.17
  J9                   JUNCTION     0.07     0.11    29.11     0  11:40        0.11
  J14                  JUNCTION     0.09     0.15    20.15     0  20:31        0.15
  J17                  JUNCTION     0.05     0.08    20.08     0  19:20        0.08
  J7                   JUNCTION     0.07     0.17    39.17     0  10:03        0.17
  J11                  JUNCTION     0.07     0.18    31.18     0  09:48        0.18
  J18                  JUNCTION     0.04     0.14    29.14     0  09:53        0.14
  Out_to_WWTP          OUTFALL      0.12     0.17     6.17     0  17:50        0.17
  T5                   STORAGE      2.68     5.00    32.00     0  17:10        5.00
  T4                   STORAGE      2.71     5.00    32.00     0  14:33        5.00
  T6                   STORAGE      2.96     5.00    36.00     0  10:50        5.00
  T3                   STORAGE      2.35     5.00    27.00     0  18:07        5.00
  T2                   STORAGE      2.64     5.00    26.00     0  15:27        5.00
  T1                   STORAGE      2.62     5.00    15.00     0  10:37        5.00
  
  
  *******************
  Node Inflow Summary
  *******************
  
  -------------------------------------------------------------------------------------------------
                                  Maximum  Maximum                  Lateral       Total        Flow
                                  Lateral    Total  Time of Max      Inflow      Inflow     Balance
                                   Inflow   Inflow   Occurrence      Volume      Volume       Error
  Node                 Type           CMS      CMS  days hr:min    10^6 ltr    10^6 ltr     Percent
  -------------------------------------------------------------------------------------------------
  J1                   JUNCTION     0.247    0.247     0  09:46        2.83        2.83      -0.029
  J3                   JUNCTION     0.000    0.191     0  18:32           0        7.52       0.461
  CSO7                 JUNCTION     0.063    0.063     0  10:01        1.22        1.22       0.016
  J5                   JUNCTION     0.081    0.138     0  10:06         1.2        2.42       0.010
  CSO9                 JUNCTION     0.084    0.084     0  09:56        1.27        1.27       0.012
  J8                   JUNCTION     0.330    0.404     0  10:06           6        7.27       0.016
  CSO8                 JUNCTION     0.191    0.191     0  09:46        3.79        3.79      -0.000
  J10                  JUNCTION     0.183    0.330     0  09:41        2.91        6.71      -0.078
  J13                  JUNCTION     0.349    0.349     0  09:51        4.07        4.07      -0.137
  J15                  JUNCTION     0.000    0.713     0  09:52           0        15.1       0.512
  J16                  JUNCTION     0.520    0.520     0  09:46        4.76        4.76      -0.033
  CSO10                JUNCTION     0.162    0.162     0  09:51        1.58        1.58       0.008
  J12                  JUNCTION     0.000    0.341     0  09:52           0        9.53       6.769
  J4                   JUNCTION     0.000    0.061     0  10:02           0        1.22       0.098
  J6                   JUNCTION     0.000    0.028     0  14:40           0         1.2       0.187
  J2                   JUNCTION     0.000    0.039     0  17:10           0        2.08       0.229
  J19                  JUNCTION     0.000    0.271     0  10:37           0        13.8       0.074
  J9                   JUNCTION     0.000    0.075     0  11:20           0        2.82       0.216
  J14                  JUNCTION     0.000    0.124     0  18:07           0        4.25       0.170
  J17                  JUNCTION     0.000    0.033     0  15:27           0        1.25       0.470
  J7                   JUNCTION     0.000    0.078     0  09:57           0        1.27       0.092
  J11                  JUNCTION     0.000    0.189     0  09:46           0        3.79       0.053
  J18                  JUNCTION     0.000    0.154     0  09:51           0        1.58       0.002
  Out_to_WWTP          OUTFALL      0.000    0.271     0  10:39           0        13.8       0.000
  T5                   STORAGE      0.000    0.231     0  09:51           0        2.83      12.497
  T4                   STORAGE      0.000    0.134     0  10:07           0        2.42      14.372
  T6                   STORAGE      0.000    0.390     0  10:07           0        7.27      11.050
  T3                   STORAGE      0.000    0.354     0  18:28           0        8.92      17.481
  T2                   STORAGE      0.000    0.324     0  09:52           0        4.07      27.101
  T1                   STORAGE      0.000    0.672     0  09:53           0          15       3.322
  
  
  **********************
  Node Surcharge Summary
  **********************
  
  No nodes were surcharged.
  
  
  *********************
  Node Flooding Summary
  *********************
  
  Flooding refers to all water that overflows a node, whether it ponds or not.
  --------------------------------------------------------------------------
                                                             Total   Maximum
                                 Maximum   Time of Max       Flood    Ponded
                        Hours       Rate    Occurrence      Volume     Depth
  Node                 Flooded       CMS   days hr:min    10^6 ltr    Meters
  --------------------------------------------------------------------------
  T5                      2.22     0.026      0  18:37       0.127     0.000
  T4                      6.07     0.043      0  18:10       0.494     0.000
  T6                      9.85     0.143      0  13:00       3.214     0.000
  T3                      1.93     0.243      0  19:20       0.852     0.000
  T2                      5.50     0.100      0  17:32       1.038     0.000
  T1                      1.45     0.157      0  10:37       0.289     0.000
  
  
  **********************
  Storage Volume Summary
  **********************
  
  --------------------------------------------------------------------------------------------------
                         Average     Avg  Evap Exfil       Maximum     Max    Time of Max    Maximum
                          Volume    Pcnt  Pcnt  Pcnt        Volume    Pcnt     Occurrence    Outflow
  Storage Unit           1000 m3    Full  Loss  Loss       1000 m3    Full    days hr:min        CMS
  --------------------------------------------------------------------------------------------------
  T5                       0.268      54     0     0         0.500     100       0  17:10      0.039
  T4                       0.271      54     0     0         0.500     100       0  14:33      0.028
  T6                       0.355      59     0     0         0.600     100       0  10:50      0.075
  T3                       1.221      47     0     0         2.600     100       0  18:07      0.124
  T2                       0.527      53     0     0         1.000     100       0  15:27      0.033
  T1                       0.366      52     0     0         0.700     100       0  10:37      0.271
  
  
  ***********************
  Outfall Loading Summary
  ***********************
  
  -----------------------------------------------------------
                         Flow       Avg       Max       Total
                         Freq      Flow      Flow      Volume
  Outfall Node           Pcnt       CMS       CMS    10^6 ltr
  -----------------------------------------------------------
  Out_to_WWTP           99.43     0.162     0.271      13.826
  -----------------------------------------------------------
  System                99.43     0.162     0.271      13.826
  
  
  ********************
  Link Flow Summary
  ********************
  
  -----------------------------------------------------------------------------
                                 Maximum  Time of Max   Maximum    Max/    Max/
                                  |Flow|   Occurrence   |Veloc|    Full    Full
  Link                 Type          CMS  days hr:min     m/sec    Flow   Depth
  -----------------------------------------------------------------------------
  C1                   CONDUIT     0.039     0  17:53      1.12    0.01    0.11
  C6                   CONDUIT     0.058     0  10:09      1.26    0.93    0.63
  C2                   CONDUIT     0.028     0  19:07      1.03    0.03    0.18
  C9                   CONDUIT     0.076     0  10:03      1.13    0.26    0.38
  C16                  CONDUIT     0.176     0  09:48      1.29    0.02    0.09
  C3                   CONDUIT     0.124     0  19:32      1.85    0.05    0.14
  C19                  CONDUIT     0.033     0  19:20      0.71    0.01    0.16
  C11                  CONDUIT     0.191     0  18:40      1.80    0.01    0.09
  C20                  CONDUIT     0.484     0  09:46      2.70    0.02    0.11
  C22                  CONDUIT     0.147     0  09:53      1.41    0.07    0.26
  C12                  CONDUIT     0.075     0  11:40      1.06    0.01    0.28
  C17                  CONDUIT     0.317     0  09:42      2.27    0.02    0.29
  C10                  CONDUIT     0.390     0  10:07      0.94    0.04    0.57
  C13                  CONDUIT     0.354     0  18:28      0.85    0.02    0.75
  C18                  CONDUIT     0.324     0  09:52      1.01    0.01    0.53
  C23                  CONDUIT     0.672     0  09:53      0.85    0.07    0.59
  C4                   CONDUIT     0.231     0  09:51      1.13    0.06    0.58
  C7                   CONDUIT     0.134     0  10:07      0.83    0.03    0.56
  C14                  CONDUIT     0.271     0  10:39      2.08    0.02    0.09
  C5                   CONDUIT     0.061     0  10:02      1.26    1.05    0.92
  C8                   CONDUIT     0.078     0  09:57      1.34    0.99    0.73
  C15                  CONDUIT     0.189     0  09:46      2.45    0.60    0.49
  C21                  CONDUIT     0.154     0  09:51      1.77    0.88    0.56
  V4                   ORIFICE     0.028     0  14:40                      0.35
  V5                   ORIFICE     0.039     0  17:10                      1.00
  V1                   ORIFICE     0.271     0  10:37                      1.00
  V6                   ORIFICE     0.075     0  11:20                      0.43
  V3                   ORIFICE     0.124     0  18:07                      0.65
  V2                   ORIFICE     0.033     0  15:27                      0.24
  
  
  ***************************
  Flow Classification Summary
  ***************************
  
  -------------------------------------------------------------------------------------
                      Adjusted    ---------- Fraction of Time in Flow Class ---------- 
                       /Actual         Up    Down  Sub   Sup   Up    Down  Norm  Inlet 
  Conduit               Length    Dry  Dry   Dry   Crit  Crit  Crit  Crit  Ltd   Ctrl  
  -------------------------------------------------------------------------------------
  C1                      1.00   0.00  0.00  0.00  0.08  0.92  0.00  0.00  0.96  0.00
  C6                      1.00   0.00  0.00  0.00  0.01  0.99  0.00  0.00  0.00  0.00
  C2                      1.00   0.00  0.00  0.00  0.50  0.50  0.00  0.00  0.98  0.00
  C9                      1.00   0.00  0.00  0.00  1.00  0.00  0.00  0.00  1.00  0.00
  C16                     1.00   0.00  0.25  0.00  0.28  0.47  0.00  0.00  0.24  0.00
  C3                      1.00   0.00  0.00  0.00  0.03  0.96  0.00  0.00  0.58  0.00
  C19                     1.00   0.00  0.00  0.00  1.00  0.00  0.00  0.00  1.00  0.00
  C11                     1.00   0.00  0.00  0.00  0.11  0.89  0.00  0.00  1.00  0.00
  C20                     1.00   0.00  0.00  0.00  0.60  0.40  0.00  0.00  0.99  0.00
  C22                     1.00   0.00  0.00  0.00  0.95  0.05  0.00  0.00  1.00  0.00
  C12                     1.00   0.00  0.00  0.00  0.81  0.19  0.00  0.00  0.91  0.00
  C17                     1.00   0.00  0.00  0.00  0.55  0.45  0.00  0.00  0.98  0.00
  C10                     1.00   0.00  0.00  0.00  0.95  0.05  0.00  0.00  0.98  0.00
  C13                     1.00   0.00  0.00  0.00  0.81  0.18  0.00  0.00  0.56  0.00
  C18                     1.00   0.00  0.00  0.00  0.95  0.05  0.00  0.00  0.98  0.00
  C23                     1.00   0.00  0.00  0.00  0.77  0.23  0.00  0.00  0.96  0.00
  C4                      1.00   0.00  0.00  0.00  0.82  0.18  0.00  0.00  0.98  0.00
  C7                      1.00   0.00  0.00  0.00  0.94  0.06  0.00  0.00  0.97  0.00
  C14                     1.00   0.00  0.00  0.00  0.00  1.00  0.00  0.00  0.39  0.00
  C5                      1.00   0.00  0.00  0.00  0.94  0.06  0.00  0.00  0.98  0.00
  C8                      1.00   0.00  0.00  0.00  0.23  0.77  0.00  0.00  0.00  0.00
  C15                     1.00   0.25  0.00  0.00  0.00  0.75  0.00  0.00  0.00  0.00
  C21                     1.00   0.00  0.00  0.00  0.00  1.00  0.00  0.00  0.00  0.00
  
  
  *************************
  Conduit Surcharge Summary
  *************************
  
  ----------------------------------------------------------------------------
                                                           Hours        Hours 
                         --------- Hours Full --------   Above Full   Capacity
  Conduit                Both Ends  Upstream  Dnstream   Normal Flow   Limited
  ----------------------------------------------------------------------------
  C10                         0.01      0.01     14.07      0.01         0.01
  C13                         0.01      0.01     11.60      0.01         0.01
  C18                         0.01      0.01     13.60      0.01         0.01
  C23                         0.01      0.01     14.05      0.01         0.01
  C4                          0.01      0.01     14.18      0.01         0.01
  C7                          0.01      0.01     14.01      0.01         0.01
  C5                          0.01      0.01      0.01      0.10         0.01
  

  Analysis begun on:  Mon Sep 20 12:28:39 2021
  Analysis ended on:  Mon Sep 20 12:28:40 2021
  Total elapsed time: 00:00:01