
  EPA STORM WATER MANAGEMENT MODEL - VERSION 5.1 (Build 5.3.0.dev0)
  --------------------------------------------------------------

  WARNING 09: time series interval greater than recording interval for Rain Gage RG1
  WARNING 09: time series interval greater than recording interval for Rain Gage RG2
  WARNING 09: time series interval greater than recording interval for Rain Gage RG3
  WARNING 09: time series interval greater than recording interval for Rain Gage RG4
  
  *********************************************************
  NOTE: The summary statistics displayed in this report are
  based on results found at every computational time step,  
  not just on results from each reporting time step.
  *********************************************************
  
  ****************
  Analysis Options
  ****************
  Flow Units ............... CMS
  Process Models:
    Rainfall/Runoff ........ YES
    RDII ................... NO
    Snowmelt ............... NO
    Groundwater ............ NO
    Flow Routing ........... YES
    Ponding Allowed ........ YES
    Water Quality .......... NO
  Infiltration Method ...... HORTON
  Flow Routing Method ...... DYNWAVE
  Surcharge Method ......... EXTRAN
  Starting Date ............ 08/28/2015 00:00:00
  Ending Date .............. 08/28/2015 23:50:00
  Antecedent Dry Days ...... 0.0
  Report Time Step ......... 00:01:00
  Wet Time Step ............ 00:01:00
  Dry Time Step ............ 00:01:00
  Routing Time Step ........ 5.00 sec
  Variable Time Step ....... YES
  Maximum Trials ........... 8
  Number of Threads ........ 1
  Head Tolerance ........... 0.001500 m
  
  
  **************************        Volume         Depth
  Runoff Quantity Continuity     hectare-m            mm
  **************************     ---------       -------
  Total Precipitation ......         3.828        21.243
  Evaporation Loss .........         0.000         0.000
  Infiltration Loss ........         0.000         0.000
  Surface Runoff ...........         3.747        20.791
  Final Storage ............         0.092         0.509
  Continuity Error (%) .....        -0.267
  
  
  **************************        Volume        Volume
  Flow Routing Continuity        hectare-m      10^6 ltr
  **************************     ---------     ---------
  Dry Weather Inflow .......         0.759         7.586
  Wet Weather Inflow .......         3.746        37.458
  Groundwater Inflow .......         0.000         0.000
  RDII Inflow ..............         0.000         0.000
  External Inflow ..........         0.000         0.000
  External Outflow .........         1.563        15.627
  Flooding Loss ............         1.809        18.092
  Evaporation Loss .........         0.000         0.000
  Exfiltration Loss ........         0.000         0.000
  Initial Stored Volume ....         0.000         0.000
  Final Stored Volume ......         0.851         8.507
  Continuity Error (%) .....         6.257
  
  
  *************************
  Highest Continuity Errors
  *************************
  Node T2 (16.99%)
  Node T3 (13.44%)
  Node T4 (11.61%)
  Node T6 (10.95%)
  Node J12 (7.41%)
  
  
  ***************************
  Time-Step Critical Elements
  ***************************
  None
  
  
  ********************************
  Highest Flow Instability Indexes
  ********************************
  Link C15 (1)
  Link C20 (1)
  
  
  *************************
  Routing Time Step Summary
  *************************
  Minimum Time Step           :     3.50 sec
  Average Time Step           :     5.00 sec
  Maximum Time Step           :     5.00 sec
  Percent in Steady State     :     0.00
  Average Iterations per Step :     2.03
  Percent Not Converging      :     0.07
  
  
  ***************************
  Subcatchment Runoff Summary
  ***************************
  
  ------------------------------------------------------------------------------------------------------------------------------
                            Total      Total      Total      Total     Imperv       Perv      Total       Total     Peak  Runoff
                           Precip      Runon       Evap      Infil     Runoff     Runoff     Runoff      Runoff   Runoff   Coeff
  Subcatchment                 mm         mm         mm         mm         mm         mm         mm    10^6 ltr      CMS
  ------------------------------------------------------------------------------------------------------------------------------
  SC01                      31.49       0.00       0.00       0.00      31.29       0.00      31.29       10.32     8.18   0.994
  SC02                      20.93       0.00       0.00       0.00      20.51       0.00      20.51        4.67     0.48   0.980
  SC03                      14.47       0.00       0.00       0.00      14.16       0.00      14.16        2.55     0.49   0.979
  SC04                      20.93       0.00       0.00       0.00      20.11       0.00      20.11        1.39     0.09   0.961
  SC05                      31.49       0.00       0.00       0.00      31.24       0.00      31.24        4.87     3.62   0.992
  SC06                      13.74       0.00       0.00       0.00      13.01       0.00      13.01        4.23     0.31   0.947
  SC07                      20.93       0.00       0.00       0.00      20.11       0.00      20.11        0.96     0.06   0.961
  SC08                      14.47       0.00       0.00       0.00      13.95       0.00      13.95        3.91     0.38   0.964
  SC09                      13.74       0.00       0.00       0.00      13.21       0.00      13.21        0.91     0.08   0.962
  SC010                     31.49       0.00       0.00       0.00      31.14       0.00      31.14        3.66     2.28   0.989
  
  
  ******************
  Node Depth Summary
  ******************
  
  ---------------------------------------------------------------------------------
                                 Average  Maximum  Maximum  Time of Max    Reported
                                   Depth    Depth      HGL   Occurrence   Max Depth
  Node                 Type       Meters   Meters   Meters  days hr:min      Meters
  ---------------------------------------------------------------------------------
  J1                   JUNCTION     0.07     7.00    41.00     0  17:41        1.03
  J3                   JUNCTION     0.09     0.14    18.14     0  20:50        0.14
  CSO7                 JUNCTION     0.09     0.75    34.75     0  18:06        0.51
  J5                   JUNCTION     0.06     0.13    32.13     0  18:11        0.13
  CSO9                 JUNCTION     0.09     0.29    40.29     0  18:27        0.29
  J8                   JUNCTION     0.09     0.20    36.20     0  18:28        0.20
  CSO8                 JUNCTION     0.11     2.00    34.00     0  18:31        0.86
  J10                  JUNCTION     0.08     0.24    29.24     0  18:37        0.24
  J13                  JUNCTION     0.06     0.18    29.18     0  18:07        0.18
  J15                  JUNCTION     0.16     1.16    16.16     0  17:47        1.16
  J16                  JUNCTION     0.07     0.72    30.72     0  17:41        0.64
  CSO10                JUNCTION     0.14     1.00    31.00     0  17:35        1.00
  J12                  JUNCTION     0.41     1.02    27.02     0  20:04        1.02
  J4                   JUNCTION     0.11     0.27    33.27     0  18:13        0.27
  J6                   JUNCTION     0.05     0.07    25.07     0  13:31        0.07
  J2                   JUNCTION     0.06     0.08    25.08     0  18:27        0.08
  J19                  JUNCTION     0.13     0.17     8.17     0  17:41        0.17
  J9                   JUNCTION     0.08     0.11    29.11     0  14:15        0.11
  J14                  JUNCTION     0.10     0.15    20.15     0  21:31        0.15
  J17                  JUNCTION     0.05     0.08    20.08     0  20:50        0.08
  J7                   JUNCTION     0.07     0.17    39.17     0  18:29        0.17
  J11                  JUNCTION     0.08     0.24    31.24     0  18:38        0.24
  J18                  JUNCTION     0.06     0.16    29.16     0  18:09        0.16
  Out_to_WWTP          OUTFALL      0.13     0.17     6.17     0  22:03        0.17
  T5                   STORAGE      2.93     5.00    32.00     0  14:36        5.00
  T4                   STORAGE      3.04     5.00    32.00     0  12:49        5.00
  T6                   STORAGE      3.16     5.00    36.00     0  12:55        5.00
  T3                   STORAGE      2.73     5.00    27.00     0  18:54        5.00
  T2                   STORAGE      3.06     5.00    26.00     0  12:50        5.00
  T1                   STORAGE      2.89     5.00    15.00     0  14:27        5.00
  
  
  *******************
  Node Inflow Summary
  *******************
  
  -------------------------------------------------------------------------------------------------
                                  Maximum  Maximum                  Lateral       Total        Flow
                                  Lateral    Total  Time of Max      Inflow      Inflow     Balance
                                   Inflow   Inflow   Occurrence      Volume      Volume       Error
  Node                 Type           CMS      CMS  days hr:min    10^6 ltr    10^6 ltr     Percent
  -------------------------------------------------------------------------------------------------
  J1                   JUNCTION     3.633    3.633     0  17:41        5.97        5.97      -0.041
  J3                   JUNCTION     0.000    0.191     0  20:42           0        8.52       0.427
  CSO7                 JUNCTION     0.072    0.072     0  18:06        1.52        1.52       0.043
  J5                   JUNCTION     0.097    0.147     0  18:06        1.64        3.15       0.111
  CSO9                 JUNCTION     0.084    0.084     0  18:26        1.29        1.29       0.047
  J8                   JUNCTION     0.330    0.398     0  18:26        6.07        7.35       0.132
  CSO8                 JUNCTION     0.383    0.383     0  18:31        4.35        4.35       0.014
  J10                  JUNCTION     0.502    0.645     0  18:36         3.3        7.64       0.145
  J13                  JUNCTION     0.494    0.494     0  18:06        5.58        5.58       0.022
  J15                  JUNCTION     0.000    8.564     0  17:41           0        23.9       0.420
  J16                  JUNCTION     8.198    8.198     0  17:41        11.4        11.4      -0.068
  CSO10                JUNCTION     2.282    2.282     0  17:41        3.93        3.93      -0.012
  J12                  JUNCTION     0.000    0.654     0  18:37           0        11.1       8.008
  J4                   JUNCTION     0.000    0.070     0  18:06           0        1.52       0.271
  J6                   JUNCTION     0.000    0.028     0  12:50           0        1.31       0.201
  J2                   JUNCTION     0.000    0.039     0  14:37           0         2.3       0.238
  J19                  JUNCTION     0.000    0.271     0  14:27           0        15.6       0.075
  J9                   JUNCTION     0.000    0.075     0  12:55           0        3.46       0.485
  J14                  JUNCTION     0.000    0.124     0  18:54           0        4.92       0.147
  J17                  JUNCTION     0.000    0.033     0  13:30           0        1.34       0.228
  J7                   JUNCTION     0.000    0.078     0  18:27           0        1.29       0.327
  J11                  JUNCTION     0.000    0.378     0  18:31           0        4.35       0.362
  J18                  JUNCTION     0.000    0.202     0  18:09           0         2.7       0.135
  Out_to_WWTP          OUTFALL      0.000    0.271     0  17:41           0        15.6       0.000
  T5                   STORAGE      0.000    3.341     0  17:41           0        5.97       7.905
  T4                   STORAGE      0.000    0.143     0  18:11           0        3.15      13.131
  T6                   STORAGE      0.000    0.380     0  18:28           0        7.35      12.292
  T3                   STORAGE      0.000    0.592     0  20:07           0        10.3      15.521
  T2                   STORAGE      0.000    0.450     0  18:07           0        5.57      20.471
  T1                   STORAGE      0.000    4.681     0  17:48           0        23.8       2.886
  
  
  **********************
  Node Surcharge Summary
  **********************
  
  Surcharging occurs when water rises above the top of the highest conduit.
  ---------------------------------------------------------------------
                                               Max. Height   Min. Depth
                                   Hours       Above Crown    Below Rim
  Node                 Type      Surcharged         Meters       Meters
  ---------------------------------------------------------------------
  J1                   JUNCTION        0.01          6.000        0.000
  CSO7                 JUNCTION        0.13          0.493        0.451
  CSO8                 JUNCTION        0.08          1.547        0.000
  CSO10                JUNCTION        0.64          0.560        0.000
  
  
  *********************
  Node Flooding Summary
  *********************
  
  Flooding refers to all water that overflows a node, whether it ponds or not.
  --------------------------------------------------------------------------
                                                             Total   Maximum
                                 Maximum   Time of Max       Flood    Ponded
                        Hours       Rate    Occurrence      Volume     Depth
  Node                 Flooded       CMS   days hr:min    10^6 ltr    Meters
  --------------------------------------------------------------------------
  J1                      0.01     0.708      0  17:41       0.004     5.000
  CSO8                    0.01     0.075      0  18:31       0.000     0.000
  CSO10                   0.57     2.078      0  17:41       1.235     0.000
  T5                      4.55     3.265      0  17:41       2.783     0.000
  T4                      8.57     0.128      0  18:11       0.972     0.000
  T6                      8.52     0.351      0  18:28       2.513     0.000
  T3                      3.83     0.532      0  20:07       1.347     0.000
  T2                      8.87     0.435      0  18:07       2.287     0.000
  T1                      4.92     4.410      0  17:48       6.951     0.000
  
  
  **********************
  Storage Volume Summary
  **********************
  
  --------------------------------------------------------------------------------------------------
                         Average     Avg  Evap Exfil       Maximum     Max    Time of Max    Maximum
                          Volume    Pcnt  Pcnt  Pcnt        Volume    Pcnt     Occurrence    Outflow
  Storage Unit           1000 m3    Full  Loss  Loss       1000 m3    Full    days hr:min        CMS
  --------------------------------------------------------------------------------------------------
  T5                       0.293      59     0     0         0.500     100       0  14:36      0.039
  T4                       0.304      61     0     0         0.500     100       0  12:49      0.028
  T6                       0.379      63     0     0         0.600     100       0  12:55      0.075
  T3                       1.422      55     0     0         2.600     100       0  18:54      0.124
  T2                       0.611      61     0     0         1.000     100       0  12:50      0.033
  T1                       0.404      58     0     0         0.700     100       0  14:27      0.271
  
  
  ***********************
  Outfall Loading Summary
  ***********************
  
  -----------------------------------------------------------
                         Flow       Avg       Max       Total
                         Freq      Flow      Flow      Volume
  Outfall Node           Pcnt       CMS       CMS    10^6 ltr
  -----------------------------------------------------------
  Out_to_WWTP           99.43     0.183     0.271      15.627
  -----------------------------------------------------------
  System                99.43     0.183     0.271      15.627
  
  
  ********************
  Link Flow Summary
  ********************
  
  -----------------------------------------------------------------------------
                                 Maximum  Time of Max   Maximum    Max/    Max/
                                  |Flow|   Occurrence   |Veloc|    Full    Full
  Link                 Type          CMS  days hr:min     m/sec    Flow   Depth
  -----------------------------------------------------------------------------
  C1                   CONDUIT     0.039     0  18:27      1.07    0.01    0.11
  C6                   CONDUIT     0.060     0  18:15      1.26    0.95    0.66
  C2                   CONDUIT     0.028     0  13:31      1.03    0.03    0.18
  C9                   CONDUIT     0.075     0  18:29      1.12    0.25    0.37
  C16                  CONDUIT     0.316     0  18:38      1.51    0.03    0.12
  C3                   CONDUIT     0.124     0  20:42      1.84    0.05    0.14
  C19                  CONDUIT     0.033     0  20:49      0.71    0.01    0.53
  C11                  CONDUIT     0.191     0  20:50      1.68    0.01    0.32
  C20                  CONDUIT     8.179     0  17:41      8.17    0.26    0.42
  C22                  CONDUIT     0.202     0  18:09      1.52    0.09    0.60
  C12                  CONDUIT     0.075     0  14:15      1.01    0.01    0.28
  C17                  CONDUIT     0.607     0  18:37      2.24    0.03    0.30
  C10                  CONDUIT     0.380     0  18:28      0.94    0.04    0.57
  C13                  CONDUIT     0.592     0  20:07      1.58    0.03    0.76
  C18                  CONDUIT     0.450     0  18:07      1.10    0.02    0.54
  C23                  CONDUIT     4.681     0  17:48      2.83    0.52    0.89
  C4                   CONDUIT     3.341     0  17:41      4.25    0.81    1.00
  C7                   CONDUIT     0.143     0  18:11      0.83    0.04    0.56
  C14                  CONDUIT     0.271     0  17:41      2.08    0.02    0.09
  C5                   CONDUIT     0.070     0  18:06      1.41    1.20    1.00
  C8                   CONDUIT     0.078     0  18:27      1.33    0.99    0.72
  C15                  CONDUIT     0.378     0  18:31      3.38    1.20    0.76
  C21                  CONDUIT     0.202     0  18:09      1.91    1.16    0.69
  V4                   ORIFICE     0.028     0  12:50                      0.35
  V5                   ORIFICE     0.039     0  14:37                      1.00
  V1                   ORIFICE     0.271     0  14:27                      1.00
  V6                   ORIFICE     0.075     0  12:55                      0.43
  V3                   ORIFICE     0.124     0  18:54                      0.65
  V2                   ORIFICE     0.033     0  13:30                      0.24
  
  
  ***************************
  Flow Classification Summary
  ***************************
  
  -------------------------------------------------------------------------------------
                      Adjusted    ---------- Fraction of Time in Flow Class ---------- 
                       /Actual         Up    Down  Sub   Sup   Up    Down  Norm  Inlet 
  Conduit               Length    Dry  Dry   Dry   Crit  Crit  Crit  Crit  Ltd   Ctrl  
  -------------------------------------------------------------------------------------
  C1                      1.00   0.00  0.00  0.00  0.07  0.93  0.00  0.00  0.96  0.00
  C6                      1.00   0.00  0.00  0.00  0.02  0.98  0.00  0.00  0.00  0.00
  C2                      1.00   0.00  0.00  0.00  0.54  0.46  0.00  0.00  0.98  0.00
  C9                      1.00   0.00  0.00  0.00  1.00  0.00  0.00  0.00  1.00  0.00
  C16                     1.00   0.00  0.14  0.00  0.15  0.70  0.00  0.00  0.11  0.00
  C3                      1.00   0.00  0.00  0.00  0.04  0.96  0.00  0.00  0.52  0.00
  C19                     1.00   0.00  0.00  0.00  1.00  0.00  0.00  0.00  1.00  0.00
  C11                     1.00   0.00  0.00  0.00  0.23  0.77  0.00  0.00  1.00  0.00
  C20                     1.00   0.00  0.00  0.00  0.47  0.53  0.00  0.00  0.99  0.00
  C22                     1.00   0.00  0.00  0.00  0.92  0.08  0.00  0.00  1.00  0.00
  C12                     1.00   0.00  0.00  0.00  0.84  0.16  0.00  0.00  0.95  0.00
  C17                     1.00   0.00  0.00  0.00  0.59  0.41  0.00  0.00  0.98  0.00
  C10                     1.00   0.00  0.00  0.00  0.94  0.06  0.00  0.00  0.98  0.00
  C13                     1.00   0.00  0.00  0.00  0.83  0.17  0.00  0.00  0.44  0.00
  C18                     1.00   0.00  0.00  0.00  0.95  0.05  0.00  0.00  0.98  0.00
  C23                     1.00   0.00  0.00  0.00  0.82  0.18  0.00  0.00  0.94  0.00
  C4                      1.00   0.00  0.00  0.00  0.82  0.18  0.00  0.00  0.97  0.00
  C7                      1.00   0.00  0.00  0.00  0.92  0.08  0.00  0.00  0.97  0.00
  C14                     1.00   0.00  0.00  0.00  0.00  1.00  0.00  0.00  0.35  0.00
  C5                      1.00   0.00  0.00  0.00  0.87  0.13  0.00  0.00  0.97  0.00
  C8                      1.00   0.00  0.00  0.00  0.14  0.86  0.00  0.00  0.00  0.00
  C15                     1.00   0.14  0.00  0.00  0.00  0.86  0.00  0.00  0.01  0.00
  C21                     1.00   0.00  0.00  0.00  0.00  1.00  0.00  0.00  0.00  0.00
  
  
  *************************
  Conduit Surcharge Summary
  *************************
  
  ----------------------------------------------------------------------------
                                                           Hours        Hours 
                         --------- Hours Full --------   Above Full   Capacity
  Conduit                Both Ends  Upstream  Dnstream   Normal Flow   Limited
  ----------------------------------------------------------------------------
  C19                         0.01      0.01      0.13      0.01         0.01
  C22                         0.01      0.01      0.20      0.01         0.01
  C10                         0.01      0.01     17.36      0.01         0.01
  C13                         0.01      0.01     12.46      0.01         0.01
  C18                         0.01      0.01     15.75      0.01         0.01
  C23                         0.01      0.01     17.32      0.01         0.01
  C4                          0.01      0.01     18.57      0.01         0.01
  C7                          0.01      0.01     17.99      0.01         0.01
  C5                          0.08      0.13      0.19      0.21         0.08
  C15                         0.01      0.08      0.01      0.11         0.01
  C21                         0.01      0.64      0.01      0.62         0.01
  

  Analysis begun on:  Mon Sep 20 12:42:21 2021
  Analysis ended on:  Mon Sep 20 12:42:22 2021
  Total elapsed time: 00:00:01