
  EPA STORM WATER MANAGEMENT MODEL - VERSION 5.1 (Build 5.3.0.dev0)
  --------------------------------------------------------------

  
  *********************************************************
  NOTE: The summary statistics displayed in this report are
  based on results found at every computational time step,  
  not just on results from each reporting time step.
  *********************************************************
  
  ****************
  Analysis Options
  ****************
  Flow Units ............... CMS
  Process Models:
    Rainfall/Runoff ........ YES
    RDII ................... NO
    Snowmelt ............... NO
    Groundwater ............ NO
    Flow Routing ........... YES
    Ponding Allowed ........ YES
    Water Quality .......... NO
  Infiltration Method ...... HORTON
  Flow Routing Method ...... DYNWAVE
  Surcharge Method ......... EXTRAN
  Starting Date ............ 08/28/2015 08:00:00
  Ending Date .............. 08/28/2015 08:10:00
  Antecedent Dry Days ...... 0.0
  Report Time Step ......... 00:01:00
  Wet Time Step ............ 00:01:00
  Dry Time Step ............ 00:01:00
  Routing Time Step ........ 5.00 sec
  Variable Time Step ....... YES
  Maximum Trials ........... 8
  Number of Threads ........ 1
  Head Tolerance ........... 0.001500 m
  
  
  **************************        Volume         Depth
  Runoff Quantity Continuity     hectare-m            mm
  **************************     ---------       -------
  Total Precipitation ......         0.000         0.000
  Evaporation Loss .........         0.000         0.000
  Infiltration Loss ........         0.000         0.000
  Surface Runoff ...........         0.000         0.000
  Final Storage ............         0.000         0.000
  Continuity Error (%) .....         0.000
  
  
  **************************        Volume        Volume
  Flow Routing Continuity        hectare-m      10^6 ltr
  **************************     ---------     ---------
  Dry Weather Inflow .......         0.007         0.071
  Wet Weather Inflow .......         0.000         0.000
  Groundwater Inflow .......         0.000         0.000
  RDII Inflow ..............         0.000         0.000
  External Inflow ..........         0.000         0.000
  External Outflow .........         0.000         0.000
  Flooding Loss ............         0.000         0.000
  Evaporation Loss .........         0.000         0.000
  Exfiltration Loss ........         0.000         0.000
  Initial Stored Volume ....         0.000         0.000
  Final Stored Volume ......         0.008         0.080
  Continuity Error (%) .....       -12.912
  
  
  *************************
  Highest Continuity Errors
  *************************
  Node J15 (84.73%)
  Node J12 (79.40%)
  Node J6 (76.98%)
  Node J3 (76.05%)
  Node J7 (75.77%)
  
  
  ***************************
  Time-Step Critical Elements
  ***************************
  None
  
  
  ********************************
  Highest Flow Instability Indexes
  ********************************
  Link C7 (3)
  Link C17 (1)
  Link C21 (1)
  
  
  *************************
  Routing Time Step Summary
  *************************
  Minimum Time Step           :     3.50 sec
  Average Time Step           :     4.95 sec
  Maximum Time Step           :     5.00 sec
  Percent in Steady State     :     0.00
  Average Iterations per Step :     2.03
  Percent Not Converging      :     0.00
  
  
  ***************************
  Subcatchment Runoff Summary
  ***************************
  
  ------------------------------------------------------------------------------------------------------------------------------
                            Total      Total      Total      Total     Imperv       Perv      Total       Total     Peak  Runoff
                           Precip      Runon       Evap      Infil     Runoff     Runoff     Runoff      Runoff   Runoff   Coeff
  Subcatchment                 mm         mm         mm         mm         mm         mm         mm    10^6 ltr      CMS
  ------------------------------------------------------------------------------------------------------------------------------
  SC01                       0.00       0.00       0.00       0.00       0.00       0.00       0.00        0.00     0.00   0.000
  SC02                       0.00       0.00       0.00       0.00       0.00       0.00       0.00        0.00     0.00   0.000
  SC03                       0.00       0.00       0.00       0.00       0.00       0.00       0.00        0.00     0.00   0.000
  SC04                       0.00       0.00       0.00       0.00       0.00       0.00       0.00        0.00     0.00   0.000
  SC05                       0.00       0.00       0.00       0.00       0.00       0.00       0.00        0.00     0.00   0.000
  SC06                       0.00       0.00       0.00       0.00       0.00       0.00       0.00        0.00     0.00   0.000
  SC07                       0.00       0.00       0.00       0.00       0.00       0.00       0.00        0.00     0.00   0.000
  SC08                       0.00       0.00       0.00       0.00       0.00       0.00       0.00        0.00     0.00   0.000
  SC09                       0.00       0.00       0.00       0.00       0.00       0.00       0.00        0.00     0.00   0.000
  SC010                      0.00       0.00       0.00       0.00       0.00       0.00       0.00        0.00     0.00   0.000
  
  
  ******************
  Node Depth Summary
  ******************
  
  ---------------------------------------------------------------------------------
                                 Average  Maximum  Maximum  Time of Max    Reported
                                   Depth    Depth      HGL   Occurrence   Max Depth
  Node                 Type       Meters   Meters   Meters  days hr:min      Meters
  ---------------------------------------------------------------------------------
  J1                   JUNCTION     0.05     0.05    34.05     0  00:04        0.05
  J3                   JUNCTION     0.00     0.01    18.01     0  00:09        0.01
  CSO7                 JUNCTION     0.07     0.07    34.07     0  00:02        0.07
  J5                   JUNCTION     0.02     0.04    32.04     0  00:09        0.04
  CSO9                 JUNCTION     0.06     0.07    40.07     0  00:04        0.07
  J8                   JUNCTION     0.05     0.06    36.06     0  00:09        0.06
  CSO8                 JUNCTION     0.06     0.07    32.07     0  00:02        0.07
  J10                  JUNCTION     0.03     0.04    29.04     0  00:09        0.04
  J13                  JUNCTION     0.04     0.04    29.04     0  00:05        0.04
  J15                  JUNCTION     0.02     0.04    15.04     0  00:09        0.03
  J16                  JUNCTION     0.03     0.04    30.04     0  00:05        0.04
  CSO10                JUNCTION     0.05     0.05    30.05     0  00:05        0.05
  J12                  JUNCTION     0.02     0.03    26.03     0  00:09        0.03
  J4                   JUNCTION     0.04     0.07    33.07     0  00:09        0.07
  J6                   JUNCTION     0.00     0.01    25.01     0  00:09        0.01
  J2                   JUNCTION     0.01     0.02    25.02     0  00:09        0.02
  J19                  JUNCTION     0.00     0.01     8.01     0  00:09        0.00
  J9                   JUNCTION     0.01     0.02    29.02     0  00:09        0.02
  J14                  JUNCTION     0.00     0.00    20.00     0  00:09        0.00
  J17                  JUNCTION     0.01     0.02    20.02     0  00:09        0.01
  J7                   JUNCTION     0.02     0.04    39.04     0  00:09        0.03
  J11                  JUNCTION     0.02     0.04    31.04     0  00:09        0.04
  J18                  JUNCTION     0.01     0.02    29.02     0  00:09        0.02
  Out_to_WWTP          OUTFALL      0.00     0.00     6.00     0  00:09        0.00
  T5                   STORAGE      0.02     0.05    27.05     0  00:09        0.04
  T4                   STORAGE      0.01     0.02    27.02     0  00:09        0.01
  T6                   STORAGE      0.02     0.05    31.05     0  00:09        0.04
  T3                   STORAGE      0.00     0.00    22.00     0  00:09        0.00
  T2                   STORAGE      0.01     0.03    21.03     0  00:09        0.02
  T1                   STORAGE      0.00     0.01    10.01     0  00:09        0.01
  
  
  *******************
  Node Inflow Summary
  *******************
  
  -------------------------------------------------------------------------------------------------
                                  Maximum  Maximum                  Lateral       Total        Flow
                                  Lateral    Total  Time of Max      Inflow      Inflow     Balance
                                   Inflow   Inflow   Occurrence      Volume      Volume       Error
  Node                 Type           CMS      CMS  days hr:min    10^6 ltr    10^6 ltr     Percent
  -------------------------------------------------------------------------------------------------
  J1                   JUNCTION     0.016    0.016     0  00:00     0.00988     0.00988      17.024
  J3                   JUNCTION     0.000    0.003     0  00:09           0    0.000512     317.521
  CSO7                 JUNCTION     0.009    0.009     0  00:00     0.00511     0.00511       9.877
  J5                   JUNCTION     0.004    0.010     0  00:09     0.00224     0.00387      86.530
  CSO9                 JUNCTION     0.006    0.006     0  00:00     0.00345     0.00345      16.499
  J8                   JUNCTION     0.028    0.031     0  00:09      0.0165      0.0173      61.555
  CSO8                 JUNCTION     0.010    0.010     0  00:00      0.0062      0.0062       9.686
  J10                  JUNCTION     0.011    0.018     0  00:09     0.00678     0.00876     102.128
  J13                  JUNCTION     0.014    0.014     0  00:00     0.00822     0.00822      16.102
  J15                  JUNCTION     0.000    0.023     0  00:09           0     0.00927     554.678
  J16                  JUNCTION     0.016    0.016     0  00:00     0.00974     0.00974      20.608
  CSO10                JUNCTION     0.004    0.004     0  00:00     0.00244     0.00244      21.931
  J12                  JUNCTION     0.000    0.017     0  00:09           0     0.00479     385.387
  J4                   JUNCTION     0.000    0.009     0  00:04           0     0.00465     184.536
  J6                   JUNCTION     0.000    0.002     0  00:09           0     0.00026     334.494
  J2                   JUNCTION     0.000    0.004     0  00:09           0     0.00113     152.951
  J19                  JUNCTION     0.000    0.001     0  00:09           0    8.66e-05      53.977
  J9                   JUNCTION     0.000    0.010     0  00:09           0     0.00186     309.236
  J14                  JUNCTION     0.000    0.000     0  00:09           0    8.74e-06       4.692 ltr
  J17                  JUNCTION     0.000    0.004     0  00:09           0    0.000874     299.105
  J7                   JUNCTION     0.000    0.006     0  00:06           0     0.00296     312.710
  J11                  JUNCTION     0.000    0.011     0  00:04           0     0.00565     185.344
  J18                  JUNCTION     0.000    0.004     0  00:07           0       0.002     134.248
  Out_to_WWTP          OUTFALL      0.000    0.000     0  00:09           0    5.62e-05       0.000
  T5                   STORAGE      0.000    0.018     0  00:08           0     0.00844      37.149
  T4                   STORAGE      0.000    0.008     0  00:09           0     0.00208      16.724
  T6                   STORAGE      0.000    0.031     0  00:09           0      0.0107      39.396
  T3                   STORAGE      0.000    0.005     0  00:09           0    0.000986       4.075
  T2                   STORAGE      0.000    0.014     0  00:09           0     0.00708      16.855
  T1                   STORAGE      0.000    0.006     0  00:09           0     0.00142      16.474
  
  
  **********************
  Node Surcharge Summary
  **********************
  
  No nodes were surcharged.
  
  
  *********************
  Node Flooding Summary
  *********************
  
  No nodes were flooded.
  
  
  **********************
  Storage Volume Summary
  **********************
  
  --------------------------------------------------------------------------------------------------
                         Average     Avg  Evap Exfil       Maximum     Max    Time of Max    Maximum
                          Volume    Pcnt  Pcnt  Pcnt        Volume    Pcnt     Occurrence    Outflow
  Storage Unit           1000 m3    Full  Loss  Loss       1000 m3    Full    days hr:min        CMS
  --------------------------------------------------------------------------------------------------
  T5                       0.002       0     0     0         0.005       1       0  00:09      0.004
  T4                       0.001       0     0     0         0.002       0       0  00:09      0.002
  T6                       0.002       0     0     0         0.006       1       0  00:09      0.010
  T3                       0.000       0     0     0         0.001       0       0  00:09      0.000
  T2                       0.002       0     0     0         0.005       1       0  00:09      0.004
  T1                       0.000       0     0     0         0.001       0       0  00:09      0.001
  
  
  ***********************
  Outfall Loading Summary
  ***********************
  
  -----------------------------------------------------------
                         Flow       Avg       Max       Total
                         Freq      Flow      Flow      Volume
  Outfall Node           Pcnt       CMS       CMS    10^6 ltr
  -----------------------------------------------------------
  Out_to_WWTP           53.72     0.000     0.000       0.000
  -----------------------------------------------------------
  System                53.72     0.000     0.000       0.000
  
  
  ********************
  Link Flow Summary
  ********************
  
  -----------------------------------------------------------------------------
                                 Maximum  Time of Max   Maximum    Max/    Max/
                                  |Flow|   Occurrence   |Veloc|    Full    Full
  Link                 Type          CMS  days hr:min     m/sec    Flow   Depth
  -----------------------------------------------------------------------------
  C1                   CONDUIT     0.002     0  00:09      0.87    0.00    0.02
  C6                   CONDUIT     0.006     0  00:09      0.72    0.10    0.18
  C2                   CONDUIT     0.000     0  00:09      0.50    0.00    0.02
  C9                   CONDUIT     0.003     0  00:09      0.30    0.01    0.10
  C16                  CONDUIT     0.007     0  00:09      0.44    0.00    0.02
  C3                   CONDUIT     0.000     0  00:09      0.06    0.00    0.00
  C19                  CONDUIT     0.001     0  00:09      0.25    0.00    0.03
  C11                  CONDUIT     0.001     0  00:09      0.11    0.00    0.01
  C20                  CONDUIT     0.017     0  00:09      1.70    0.00    0.02
  C22                  CONDUIT     0.003     0  00:09      0.53    0.00    0.04
  C12                  CONDUIT     0.003     0  00:09      0.36    0.00    0.01
  C17                  CONDUIT     0.014     0  00:09      1.05    0.00    0.02
  C10                  CONDUIT     0.031     0  00:09      1.66    0.00    0.04
  C13                  CONDUIT     0.005     0  00:09      0.99    0.00    0.01
  C18                  CONDUIT     0.014     0  00:09      1.72    0.00    0.02
  C23                  CONDUIT     0.006     0  00:09      1.17    0.00    0.01
  C4                   CONDUIT     0.018     0  00:08      1.98    0.00    0.05
  C7                   CONDUIT     0.008     0  00:09      1.43    0.00    0.03
  C14                  CONDUIT     0.000     0  00:09      0.49    0.00    0.00
  C5                   CONDUIT     0.009     0  00:04      1.22    0.15    0.26
  C8                   CONDUIT     0.006     0  00:06      0.93    0.07    0.16
  C15                  CONDUIT     0.011     0  00:04      1.43    0.03    0.11
  C21                  CONDUIT     0.004     0  00:07      0.74    0.02    0.09
  V4                   ORIFICE     0.002     0  00:09                      0.58
  V5                   ORIFICE     0.004     0  00:09                      1.00
  V1                   ORIFICE     0.001     0  00:09                      0.09
  V6                   ORIFICE     0.010     0  00:09                      0.83
  V3                   ORIFICE     0.000     0  00:09                      0.03
  V2                   ORIFICE     0.004     0  00:09                      0.56
  
  
  ***************************
  Flow Classification Summary
  ***************************
  
  -------------------------------------------------------------------------------------
                      Adjusted    ---------- Fraction of Time in Flow Class ---------- 
                       /Actual         Up    Down  Sub   Sup   Up    Down  Norm  Inlet 
  Conduit               Length    Dry  Dry   Dry   Crit  Crit  Crit  Crit  Ltd   Ctrl  
  -------------------------------------------------------------------------------------
  C1                      1.00   0.06  0.00  0.00  0.08  0.86  0.00  0.00  0.00  0.00
  C6                      1.00   0.00  0.01  0.00  0.36  0.63  0.00  0.00  0.16  0.00
  C2                      1.00   0.11  0.01  0.00  0.24  0.64  0.00  0.00  0.01  0.00
  C9                      1.00   0.00  0.01  0.00  0.99  0.00  0.00  0.00  1.00  0.00
  C16                     1.00   0.00  0.01  0.00  0.99  0.00  0.00  0.00  1.00  0.00
  C3                      1.00   0.11  0.21  0.00  0.69  0.00  0.00  0.00  0.69  0.00
  C19                     1.00   0.01  0.06  0.00  0.93  0.00  0.00  0.00  0.94  0.00
  C11                     1.00   0.01  0.10  0.00  0.89  0.00  0.00  0.00  0.90  0.00
  C20                     1.00   0.00  0.00  0.00  0.01  0.99  0.00  0.00  0.03  0.00
  C22                     1.00   0.01  0.01  0.00  0.16  0.83  0.00  0.00  0.99  0.00
  C12                     1.00   0.01  0.07  0.00  0.92  0.00  0.00  0.00  0.92  0.00
  C17                     1.00   0.00  0.00  0.00  0.02  0.98  0.00  0.00  0.00  0.00
  C10                     1.00   0.00  0.00  0.00  0.02  0.98  0.00  0.00  0.00  0.00
  C13                     1.00   0.01  0.00  0.00  0.06  0.93  0.00  0.00  0.00  0.00
  C18                     1.00   0.00  0.00  0.00  0.02  0.98  0.00  0.00  0.01  0.00
  C23                     1.00   0.01  0.00  0.00  0.04  0.95  0.00  0.00  0.00  0.00
  C4                      1.00   0.00  0.00  0.00  0.02  0.98  0.00  0.00  0.07  0.00
  C7                      1.00   0.00  0.00  0.00  0.02  0.98  0.00  0.00  0.00  0.00
  C14                     1.00   0.20  0.00  0.00  0.20  0.60  0.00  0.00  0.00  0.00
  C5                      1.00   0.00  0.00  0.00  0.02  0.98  0.00  0.00  0.11  0.00
  C8                      1.00   0.00  0.00  0.00  0.02  0.98  0.00  0.00  0.00  0.00
  C15                     1.00   0.00  0.00  0.00  0.02  0.98  0.00  0.00  0.00  0.00
  C21                     1.00   0.00  0.00  0.00  0.02  0.98  0.00  0.00  0.00  0.00
  
  
  *************************
  Conduit Surcharge Summary
  *************************
  
  No conduits were surcharged.
  

  Analysis begun on:  Tue Aug 31 13:37:42 2021
  Analysis ended on:  Tue Aug 31 13:37:42 2021
  Total elapsed time: < 1 sec