
  EPA STORM WATER MANAGEMENT MODEL - VERSION 5.1 (Build 5.3.0.dev0)
  --------------------------------------------------------------

  WARNING 04: minimum elevation drop used for Conduit WS02004404WS02004405
  WARNING 03: negative offset ignored for Link YS02001904YS02001907
  
  *********************************************************
  NOTE: The summary statistics displayed in this report are
  based on results found at every computational time step,  
  not just on results from each reporting time step.
  *********************************************************
  
  ****************
  Analysis Options
  ****************
  Flow Units ............... LPS
  Process Models:
    Rainfall/Runoff ........ YES
    RDII ................... NO
    Snowmelt ............... NO
    Groundwater ............ NO
    Flow Routing ........... YES
    Ponding Allowed ........ NO
    Water Quality .......... YES
  Infiltration Method ...... HORTON
  Flow Routing Method ...... DYNWAVE
  Surcharge Method ......... EXTRAN
  Starting Date ............ 08/28/2015 08:00:00
  Ending Date .............. 08/28/2015 15:50:00
  Antecedent Dry Days ...... 8.0
  Report Time Step ......... 00:01:00
  Wet Time Step ............ 00:01:00
  Dry Time Step ............ 00:01:00
  Routing Time Step ........ 5.00 sec
  Variable Time Step ....... YES
  Maximum Trials ........... 8
  Number of Threads ........ 4
  Head Tolerance ........... 0.001500 m
  
  
  **************************        Volume         Depth
  Runoff Quantity Continuity     hectare-m            mm
  **************************     ---------       -------
  Total Precipitation ......         5.556        12.164
  Evaporation Loss .........         0.000         0.000
  Infiltration Loss ........         1.002         2.194
  Surface Runoff ...........         3.688         8.075
  Final Storage ............         0.866         1.897
  Continuity Error (%) .....        -0.019
  
  
  **************************           COD            SS            TN            TP         NH4-N
  Runoff Quality Continuity             kg            kg            kg            kg            kg
  **************************    ----------    ----------    ----------    ----------    ----------
  Initial Buildup ..........     41378.656     70582.865      1804.177       168.684      1032.807
  Surface Buildup ..........        19.275        34.271         2.335         0.213         1.362
  Wet Deposition ...........         0.000         0.000         0.000         0.000         0.000
  Sweeping Removal .........         0.000         0.000         0.000         0.000         0.000
  Infiltration Loss ........        84.023       157.502         1.599         0.111         0.761
  BMP Removal ..............         0.000         0.000         0.000         0.000         0.000
  Surface Runoff ...........      3122.074      5752.154        60.620         4.098        28.771
  Remaining Buildup ........     38190.779     64705.500      1744.271       164.686      1004.628
  Continuity Error (%) .....         0.003         0.003         0.001         0.001         0.001
  
  
  **************************        Volume        Volume
  Flow Routing Continuity        hectare-m      10^6 ltr
  **************************     ---------     ---------
  Dry Weather Inflow .......         0.616         6.165
  Wet Weather Inflow .......         3.687        36.871
  Groundwater Inflow .......         0.000         0.000
  RDII Inflow ..............         0.000         0.000
  External Inflow ..........         0.102         1.024
  External Outflow .........         1.573        15.732
  Flooding Loss ............         2.331        23.310
  Evaporation Loss .........         0.000         0.000
  Exfiltration Loss ........         0.000         0.000
  Initial Stored Volume ....         0.076         0.761
  Final Stored Volume ......         0.656         6.559
  Continuity Error (%) .....        -1.742
  
  
  **************************           COD            SS            TN            TP         NH4-N
  Quality Routing Continuity            kg            kg            kg            kg            kg
  **************************    ----------    ----------    ----------    ----------    ----------
  Dry Weather Inflow .......      1541.201      2465.922       147.955        18.494        92.472
  Wet Weather Inflow .......      3121.308      5750.840        60.604         4.097        28.763
  Groundwater Inflow .......         0.000         0.000         0.000         0.000         0.000
  RDII Inflow ..............         0.000         0.000         0.000         0.000         0.000
  External Inflow ..........       183.418       293.469        17.608         2.201        11.005
  External Outflow .........      1698.504      2953.914        94.720        10.852        56.589
  Flooding Loss ............      2434.354      4341.442       101.288        10.784        58.343
  Exfiltration Loss ........         0.000         0.000         0.000         0.000         0.000
  Mass Reacted .............         0.000         0.000         0.000         0.000         0.000
  Initial Stored Mass ......         0.000         0.000         0.000         0.000         0.000
  Final Stored Mass ........       567.420       972.057        26.179         2.824        15.239
  Continuity Error (%) .....         3.006         2.853         1.760         1.338         1.565
  
  
  *************************
  Highest Continuity Errors
  *************************
  Node HS02004842 (14.53%)
  Node YS02001884 (10.99%)
  Node JK-storage (-7.39%)
  Node YSB1171 (2.74%)
  Node HS02004817 (2.73%)
  
  
  ***************************
  Time-Step Critical Elements
  ***************************
  Link WS02006252WS02006251 (71.17%)
  Link WS02006280WS02006229 (6.80%)
  Link WS02006238WS02006235 (4.48%)
  Link WS02004404WS02004405 (3.36%)
  Link YS02001793JiankangQianchi (2.47%)
  
  
  ********************************
  Highest Flow Instability Indexes
  ********************************
  Link YS02001619YS02001622 (42)
  Link YS02163601YS02164001 (42)
  Link YS02001629YS02163301 (41)
  Link YS02163301YS02001633 (40)
  Link YS02164001YS02001641 (39)
  
  
  *************************
  Routing Time Step Summary
  *************************
  Minimum Time Step           :     0.19 sec
  Average Time Step           :     1.03 sec
  Maximum Time Step           :     5.00 sec
  Percent in Steady State     :    -0.00
  Average Iterations per Step :     4.81
  Percent Not Converging      :    25.15
  
  
  ***************************
  Subcatchment Runoff Summary
  ***************************
  
  ------------------------------------------------------------------------------------------------------------------------------
                            Total      Total      Total      Total     Imperv       Perv      Total       Total     Peak  Runoff
                           Precip      Runon       Evap      Infil     Runoff     Runoff     Runoff      Runoff   Runoff   Coeff
  Subcatchment                 mm         mm         mm         mm         mm         mm         mm    10^6 ltr      LPS
  ------------------------------------------------------------------------------------------------------------------------------
  sub0                      12.16       0.00       0.00       0.65      11.27       0.20      11.47        0.01     1.99   0.943
  sub1                      12.16       0.00       0.00       1.12      10.73       0.22      10.95        0.07    14.96   0.900
  sub2                      12.16       0.00       0.00       4.23       7.58       0.27       7.85        0.07    15.08   0.646
  sub3                      12.16       0.00       0.00       4.29       7.54       0.21       7.75        0.17    34.61   0.637
  sub4                      12.16       0.00       0.00       1.19      10.57       0.14      10.71        0.22    42.34   0.881
  sub5                      12.16       0.00       0.00       0.69      11.21       0.16      11.38        0.13    26.18   0.935
  sub7                      12.16       0.00       0.00       0.88      11.01       0.22      11.22        0.04     7.95   0.923
  sub8                      12.16       0.00       0.00       0.89      11.00       0.21      11.20        0.07    14.89   0.921
  sub9                      12.16       0.00       0.00       0.89      10.99       0.21      11.20        0.05    11.18   0.921
  sub10                     12.16       0.00       0.00       0.79      11.10       0.18      11.28        0.12    25.49   0.928
  sub11                     12.16       0.00       0.00       0.78      11.12       0.19      11.31        0.13    27.35   0.930
  sub12                     12.16       0.00       0.00       1.27      10.53       0.31      10.85        0.09    20.52   0.892
  sub14                     12.16       0.00       0.00       0.89      10.99       0.20      11.20        0.11    22.08   0.920
  sub15                     12.16       0.00       0.00       3.28       8.45       0.37       8.82        0.15    32.49   0.725
  sub16                     12.16       0.00       0.00       3.51       8.11       0.50       8.61        0.09    20.36   0.708
  sub17                     12.16       0.00       0.00       3.41       8.23       0.48       8.71        0.07    16.72   0.716
  sub22                     12.16       0.00       0.00       4.80       6.89       0.43       7.32        0.46   102.62   0.602
  sub23                     12.16       0.00       0.00       4.05       7.62       0.45       8.07        0.38    85.35   0.663
  sub60                     12.16       0.00       0.00       1.42       8.82       0.04       8.86        2.69   336.84   0.729
  sub61                     12.16       0.00       0.00       2.01       8.94       0.06       9.00        2.78   399.45   0.740
  sub62                     12.16       0.00       0.00       0.92       9.73       0.05       9.78        3.01   415.79   0.804
  sub63                     12.16       0.00       0.00       3.46       7.82       0.06       7.88        2.39   361.21   0.648
  sub64                     12.16       0.00       0.00       1.78       8.47       0.04       8.51        2.59   320.97   0.699
  sub65                     12.16       0.00       0.00       1.54       8.61       0.04       8.65        2.66   326.54   0.711
  sub66                     12.16       0.00       0.00       3.49       7.26       0.04       7.30        2.24   290.53   0.600
  sub67                     12.16       0.00       0.00       0.91      10.24       0.07      10.31        3.18   494.23   0.848
  sub68                     12.16       0.00       0.00       1.64       9.40       0.06       9.46        2.91   432.52   0.778
  sub69                     12.16       0.00       0.00       1.73       9.72       0.09       9.82        2.29   383.95   0.807
  sub70                     12.16      10.02       0.00       6.98      13.09       0.56      13.65        3.12   394.93   0.615
  sub71                     12.16       0.00       0.00       0.93       9.48       0.05       9.53        2.25   296.34   0.783
  sub72                     12.16       0.00       0.00       0.83       7.62       0.02       7.64        1.56   151.13   0.628
  1                         12.16      13.29       0.00       1.37      14.64       3.94      18.57        4.36   399.24   0.730
  2                         12.16       0.00       0.00       3.02       2.89       1.65       4.55        1.82   245.52   0.374
  
  
  ****************************
  Subcatchment Washoff Summary
  ****************************
  
  ------------------------------------------------------------------------------------------
                                 COD            SS            TN            TP         NH4-N
  Subcatchment                    kg            kg            kg            kg            kg
  ------------------------------------------------------------------------------------------
  sub0                         2.176         4.147         0.037         0.003         0.018
  sub1                         9.268        18.138         0.173         0.012         0.083
  sub2                         5.563        10.570         0.119         0.008         0.054
  sub3                        13.747        25.918         0.288         0.019         0.132
  sub4                        21.530        42.606         0.429         0.026         0.205
  sub5                        21.300        41.103         0.378         0.029         0.183
  sub7                         4.748         9.424         0.090         0.006         0.043
  sub8                         7.142        14.500         0.143         0.008         0.069
  sub9                         6.100        12.212         0.118         0.007         0.057
  sub10                       17.532        34.266         0.321         0.023         0.155
  sub11                       17.086        33.770         0.320         0.022         0.154
  sub12                       14.392        27.890         0.260         0.019         0.125
  sub14                       13.021        25.823         0.247         0.016         0.119
  sub15                       16.182        30.744         0.313         0.023         0.146
  sub16                       10.318        19.555         0.197         0.015         0.092
  sub17                        9.471        17.789         0.175         0.014         0.082
  sub22                       48.821        90.813         0.932         0.070         0.434
  sub23                       29.138        56.181         0.627         0.041         0.287
  sub60                      203.703       376.194         4.083         0.248         1.956
  sub61                      251.300       461.579         4.699         0.320         2.261
  sub62                      262.762       491.326         5.157         0.324         2.474
  sub63                      185.047       334.594         3.739         0.261         1.731
  sub64                      253.867       452.095         4.687         0.339         2.235
  sub65                      260.106       465.192         4.834         0.344         2.309
  sub66                      146.558       263.078         3.037         0.197         1.417
  sub67                      388.205       718.566         6.963         0.510         3.363
  sub68                      276.714       513.393         5.318         0.356         2.539
  sub69                      247.676       464.012         4.658         0.325         2.225
  sub70                      413.256       778.342         8.287         0.572         3.877
  sub71                      173.740       327.842         3.597         0.206         1.720
  sub72                      136.329       239.316         2.558         0.174         1.230
  1                          280.724       531.718         5.751         0.398         2.660
  2                           35.485        61.812         1.030         0.062         0.437
  ------------------------------------------------------------------------------------------
  System                    3783.006      6994.507        73.566         4.996        34.873
  
  
  ******************
  Node Depth Summary
  ******************
  
  ---------------------------------------------------------------------------------
                                 Average  Maximum  Maximum  Time of Max    Reported
                                   Depth    Depth      HGL   Occurrence   Max Depth
  Node                 Type       Meters   Meters   Meters  days hr:min      Meters
  ---------------------------------------------------------------------------------
  WS02001211           JUNCTION     0.62     0.75     5.59     0  04:13        0.75
  WS02001212           JUNCTION     0.36     0.46     5.53     0  04:13        0.46
  WS02001213           JUNCTION     0.61     0.71     5.47     0  03:11        0.71
  WS02003069           JUNCTION     0.45     0.59     5.17     0  03:13        0.59
  WS02003072           JUNCTION     0.52     0.65     5.02     0  03:13        0.65
  WS02003073           JUNCTION     0.31     0.40     4.46     0  03:14        0.40
  WS02003060           JUNCTION     0.40     0.52     5.45     0  03:12        0.52
  WS02003066           JUNCTION     0.26     0.35     5.91     0  02:48        0.35
  WS02003059           JUNCTION     0.67     0.78     5.47     0  03:12        0.78
  WS02003067           JUNCTION     0.62     0.78     6.10     0  02:48        0.78
  WS02004401           JUNCTION     0.76     1.09     7.09     0  02:46        1.09
  WS02004402           JUNCTION     0.79     1.09     7.05     0  02:46        1.09
  WS02004403           JUNCTION     0.81     1.09     7.02     0  02:46        1.09
  WS02004404           JUNCTION     0.88     1.15     7.00     0  03:07        1.14
  WS02004406           JUNCTION     0.88     1.09     6.92     0  02:46        1.09
  WS02004409           JUNCTION     0.57     0.84     6.61     0  02:47        0.84
  WS02004410           JUNCTION     0.59     0.84     6.56     0  02:48        0.84
  WS02004411           JUNCTION     0.60     0.83     6.51     0  02:48        0.83
  WS02004412           JUNCTION     0.61     0.82     6.46     0  02:48        0.82
  WS02004413           JUNCTION     0.76     0.97     6.44     0  02:48        0.97
  WS02004405           JUNCTION     0.87     1.13     6.98     0  02:44        1.12
  WS02006109           JUNCTION     0.86     1.24     7.86     0  03:06        1.23
  WS02006110           JUNCTION     0.83     1.09     7.68     0  02:45        1.09
  WS02006111           JUNCTION     0.26     0.57     7.28     0  02:46        0.57
  WS02006112           JUNCTION     0.95     1.36     7.24     0  02:47        1.35
  WS02006113           JUNCTION     0.39     0.59     7.48     0  02:46        0.59
  WS02006115           JUNCTION     0.66     1.04     7.18     0  02:46        1.04
  WS02006116           JUNCTION     0.74     1.10     7.14     0  02:46        1.10
  WS02006230           JUNCTION     0.89     1.44     8.18     0  03:05        1.43
  WS02006231           JUNCTION     0.63     1.14     8.27     0  03:05        1.14
  WS02006232           JUNCTION     0.78     1.31     8.35     0  03:05        1.30
  WS02006234           JUNCTION     0.72     1.27     8.43     0  03:05        1.26
  WS02006235           JUNCTION     0.77     1.33     8.49     0  03:06        1.31
  WS02006238           JUNCTION     0.79     1.35     8.50     0  03:05        1.34
  WS02006240           JUNCTION     0.68     1.57     8.87     0  05:13        1.24
  WS02006242           JUNCTION     0.73     1.55     8.82     0  05:13        1.30
  WS02006243           JUNCTION     0.61     1.29     8.71     0  07:05        1.19
  WS02006245           JUNCTION     0.58     1.28     8.76     0  07:03        1.15
  WS02006247           JUNCTION     0.59     1.21     8.71     0  01:49        1.16
  WS02006248           JUNCTION     0.52     1.10     8.69     0  01:49        1.09
  WS02006249           JUNCTION     0.54     1.09     8.69     0  01:49        1.09
  WS02006239           JUNCTION     0.75     1.38     8.59     0  05:13        1.30
  WS02006251           JUNCTION     0.52     1.85     9.52     0  02:27        1.23
  WS02006252           JUNCTION     0.34     1.42     9.66     0  02:27        0.74
  WS02006253           JUNCTION     0.54     2.41    10.05     0  02:27        1.26
  WS02006256           JUNCTION     1.91     2.35     9.28     0  00:00        2.35
  WS02004138           JUNCTION     0.13     0.19     7.44     0  01:50        0.19
  WS02004139           JUNCTION     0.55     0.70     5.61     0  04:13        0.70
  WS02004407           JUNCTION     0.26     0.36     6.67     0  02:47        0.36
  WS02006228           JUNCTION     0.88     1.36     8.01     0  03:06        1.36
  WS02006229           JUNCTION     0.87     1.39     8.09     0  03:06        1.39
  WS02006280           JUNCTION     0.07     0.20     8.47     0  03:02        0.20
  WS02006284           JUNCTION     0.37     0.56     8.96     0  03:02        0.56
  WS02006287           JUNCTION     0.10     0.30     9.25     0  03:01        0.30
  WSF200               JUNCTION     0.26     0.37     5.61     0  03:10        0.37
  HS02004901           JUNCTION     0.13     0.29    10.12     0  03:01        0.29
  HS02004881           JUNCTION     0.01     0.04     9.07     0  02:27        0.04
  HS02004876           JUNCTION     0.05     0.12     9.15     0  03:01        0.12
  HS02004870           JUNCTION     0.02     0.07     9.35     0  03:01        0.07
  HS02004862           JUNCTION     0.02     0.08     9.46     0  03:01        0.08
  HS02004856           JUNCTION     0.08     0.13     9.55     0  03:01        0.13
  HS02004852           JUNCTION     0.01     0.05     9.56     0  03:01        0.05
  HS02004848           JUNCTION     0.01     0.05     9.65     0  03:01        0.05
  HS02004842           JUNCTION     0.34     0.38     9.65     0  03:01        0.38
  HS02004837           JUNCTION     0.03     0.07     9.65     0  03:01        0.07
  HS02004830           JUNCTION     0.04     0.08     9.55     0  03:01        0.08
  HS02004824           JUNCTION     0.02     0.06     9.47     0  03:01        0.06
  HS02004817           JUNCTION     0.45     0.61     9.45     0  03:01        0.61
  HS02004807           JUNCTION     0.13     0.28     9.45     0  03:01        0.28
  HS02004802           JUNCTION     0.17     0.31     9.44     0  03:01        0.31
  HS02004799           JUNCTION     0.12     0.35     9.56     0  03:01        0.35
  HS02004792           JUNCTION     0.04     0.15     9.67     0  03:01        0.15
  HS02004788           JUNCTION     0.03     0.11    10.01     0  03:01        0.11
  HS02004785           JUNCTION     0.05     0.18    10.09     0  03:01        0.18
  HS02004777           JUNCTION     0.15     0.31    10.11     0  03:01        0.31
  HS02004770           JUNCTION     0.12     0.29    10.12     0  03:01        0.29
  HS02004480           JUNCTION     0.09     0.28     9.52     0  03:01        0.28
  HS02004479           JUNCTION     0.12     0.32     9.52     0  03:01        0.32
  HS02004478           JUNCTION     0.06     0.20     9.42     0  03:01        0.20
  YS02001745           JUNCTION     0.71     0.91     8.43     0  03:05        0.91
  YS02001748           JUNCTION     1.10     1.76     8.83     0  02:29        1.34
  YS02001751           JUNCTION     1.29     1.86     8.74     0  02:19        1.54
  YS02001754           JUNCTION     1.54     1.89     8.50     0  02:19        1.81
  YS02001762           JUNCTION     1.75     2.05     8.45     0  02:49        2.02
  YS02001765           JUNCTION     1.70     2.01     8.46     0  02:49        1.97
  YS02001767           JUNCTION     1.66     1.96     8.45     0  02:49        1.92
  YS02001770           JUNCTION     1.66     1.93     8.43     0  02:49        1.91
  YS02001774           JUNCTION     1.73     1.99     8.41     0  02:49        1.97
  YS02001779           JUNCTION     1.47     1.68     8.37     0  02:40        1.68
  YS02001882           JUNCTION     0.53     1.62     8.34     0  03:00        1.61
  YS02001884           JUNCTION     0.62     1.72     8.34     0  02:59        1.71
  YS02001759           JUNCTION     1.78     2.08     8.44     0  03:04        2.06
  YS02001887           JUNCTION     0.70     1.79     8.33     0  02:58        1.79
  YS02001890           JUNCTION     0.73     1.81     8.32     0  02:56        1.81
  YS02001898           JUNCTION     0.50     1.56     8.29     0  02:58        1.55
  YS02001901           JUNCTION     0.62     1.67     8.28     0  02:58        1.67
  YS02001904           JUNCTION     0.59     1.64     8.27     0  03:00        1.63
  YS02001907           JUNCTION     0.93     1.96     8.25     0  02:47        1.96
  YS02001910           JUNCTION     0.72     1.77     8.28     0  02:48        1.76
  YS02001915           JUNCTION     0.51     1.58     8.30     0  02:48        1.56
  YS02001918           JUNCTION     0.26     1.24     8.30     0  02:48        1.23
  YS02001619           JUNCTION     1.25     1.61     8.54     0  02:25        1.52
  YS02001629           JUNCTION     1.61     1.85     8.40     0  02:25        1.84
  YS02001641           JUNCTION     1.71     1.94     8.38     0  02:39        1.93
  YS02001644           JUNCTION     1.71     1.92     8.35     0  02:37        1.92
  YS02001652           JUNCTION     1.56     2.16     8.76     0  03:37        1.94
  YS02001655           JUNCTION     1.32     2.20     9.05     0  02:24        1.82
  YS02001920           JUNCTION     0.36     1.31     8.32     0  02:48        1.29
  YS02001923           JUNCTION     0.20     1.06     8.32     0  02:48        1.05
  YS02001926           JUNCTION     0.26     0.88     8.33     0  02:48        0.87
  YS02001929           JUNCTION     0.15     0.63     8.33     0  02:48        0.63
  YS02001658           JUNCTION     1.05     2.30     9.44     0  02:24        1.70
  YS02001661           JUNCTION     0.82     2.38     9.79     0  03:35        1.52
  YS02001664           JUNCTION     0.36     0.57     8.49     0  04:44        0.56
  YS02001622           JUNCTION     1.27     1.62     8.52     0  02:25        1.53
  YS02001633           JUNCTION     1.70     1.95     8.40     0  02:39        1.94
  YS02001649           JUNCTION     1.75     2.05     8.44     0  02:42        2.05
  YS02001757           JUNCTION     1.88     2.18     8.44     0  03:05        2.16
  YS02001895           JUNCTION     0.49     1.56     8.31     0  03:00        1.55
  YS02001625           JUNCTION     1.56     1.78     8.38     0  02:25        1.78
  YS02163301           JUNCTION     1.64     1.90     8.42     0  02:27        1.87
  YS02163601           JUNCTION     1.75     1.99     8.39     0  02:39        1.98
  YS02164001           JUNCTION     1.69     1.92     8.38     0  02:39        1.91
  YS02001647           JUNCTION     1.54     1.80     8.41     0  02:47        1.79
  YSB1154              JUNCTION     0.26     0.47     9.52     0  03:01        0.47
  YSB6556              JUNCTION     0.16     0.35     9.52     0  03:01        0.35
  YSB1174              JUNCTION     0.21     0.41     9.52     0  03:01        0.41
  YSB1171              JUNCTION     0.42     0.62     9.52     0  03:01        0.62
  YS02006553           JUNCTION     0.93     1.97     8.25     0  02:57        1.96
  YS02006561           JUNCTION     0.30     1.08     7.74     0  02:57        1.07
  YS02006556           JUNCTION     0.90     1.92     8.23     0  02:59        1.92
  YS02006558           JUNCTION     0.94     1.96     8.23     0  03:00        1.96
  YS02001783           JUNCTION     0.52     1.49     7.63     0  02:25        1.46
  YS02001784           JUNCTION     0.53     1.94     8.00     0  02:25        1.41
  YS02001786           JUNCTION     0.47     2.08     8.11     0  02:25        1.25
  YS02001788           JUNCTION     0.40     2.28     8.26     0  02:25        1.12
  YS02001790           JUNCTION     0.50     1.96     7.60     0  02:24        1.29
  YS02001791           JUNCTION     0.46     1.80     7.27     0  02:25        1.28
  YS02001793           JUNCTION     0.60     2.07     6.90     0  02:22        1.80
  WSC                  OUTFALL      0.31     0.40     1.07     0  03:14        0.40
  JK-storage           STORAGE      2.28     5.80     6.60     0  02:25        5.80
  CC-storage           STORAGE      1.12     1.40     8.40     0  03:06        1.40
  XR-storage           STORAGE      7.59     7.72     5.72     0  01:56        7.72
  
  
  *******************
  Node Inflow Summary
  *******************
  
  -------------------------------------------------------------------------------------------------
                                  Maximum  Maximum                  Lateral       Total        Flow
                                  Lateral    Total  Time of Max      Inflow      Inflow     Balance
                                   Inflow   Inflow   Occurrence      Volume      Volume       Error
  Node                 Type           LPS      LPS  days hr:min    10^6 ltr    10^6 ltr     Percent
  -------------------------------------------------------------------------------------------------
  WS02001211           JUNCTION      7.35   372.14     0  01:50       0.207        4.94       0.669
  WS02001212           JUNCTION      0.00   359.30     0  01:51           0        4.91       0.335
  WS02001213           JUNCTION      0.00   355.60     0  04:13           0        4.89       0.456
  WS02003069           JUNCTION      0.32   960.24     0  03:12     0.00902        15.8       0.190
  WS02003072           JUNCTION      0.00   959.91     0  03:13           0        15.8       0.232
  WS02003073           JUNCTION      1.82   961.69     0  03:13      0.0514        15.8       0.263
  WS02003060           JUNCTION     16.53   960.14     0  03:12       0.466        15.8       0.180
  WS02003066           JUNCTION      0.00   785.51     0  02:48           0        10.5       0.047
  WS02003059           JUNCTION      0.00   355.21     0  04:14           0        4.88       0.797
  WS02003067           JUNCTION      0.00   785.38     0  02:48           0        10.5       0.096
  WS02004401           JUNCTION      0.00   786.18     0  02:47           0        10.8       0.212
  WS02004402           JUNCTION      0.00   786.20     0  02:47           0        10.8       0.199
  WS02004403           JUNCTION      0.00   786.17     0  02:47           0        10.7       0.180
  WS02004404           JUNCTION      0.16   786.39     0  02:47     0.00457        10.7       0.133
  WS02004406           JUNCTION      0.00   786.41     0  02:47           0        10.7       0.326
  WS02004409           JUNCTION      0.00   786.32     0  02:47           0        10.6       0.173
  WS02004410           JUNCTION      0.00   785.90     0  02:47           0        10.6       0.194
  WS02004411           JUNCTION      0.00   785.61     0  02:48           0        10.6       0.197
  WS02004412           JUNCTION      0.00   785.43     0  02:48           0        10.6       0.211
  WS02004413           JUNCTION      0.00   785.36     0  02:48           0        10.6       0.308
  WS02004405           JUNCTION      0.04   786.42     0  02:47     0.00107        10.7       0.202
  WS02006109           JUNCTION      1.23   782.43     0  03:06      0.0347        10.8       0.205
  WS02006110           JUNCTION      0.00   782.26     0  03:06           0        10.8       0.186
  WS02006111           JUNCTION      0.00   780.54     0  02:29           0        10.8       0.042
  WS02006112           JUNCTION     16.72   786.02     0  02:47      0.0747        10.9       0.267
  WS02006113           JUNCTION      0.00   782.23     0  03:06           0        10.8       0.100
  WS02006115           JUNCTION      0.00   786.01     0  02:47           0        10.8       0.203
  WS02006116           JUNCTION      0.00   786.12     0  02:47           0        10.8       0.195
  WS02006230           JUNCTION     10.28   533.23     0  06:40        0.29        8.67       0.139
  WS02006231           JUNCTION      0.00   523.23     0  06:40           0         8.4       0.172
  WS02006232           JUNCTION      0.00   523.34     0  06:40           0        8.41       0.207
  WS02006234           JUNCTION      0.00   523.14     0  06:40           0        8.42       0.091
  WS02006235           JUNCTION      0.00   524.50     0  05:59           0        8.48       0.144
  WS02006238           JUNCTION      0.00   330.17     0  06:01           0        4.28       0.195
  WS02006240           JUNCTION      0.00   339.43     0  07:01           0        4.26       0.283
  WS02006242           JUNCTION      0.00   352.08     0  07:01           0        4.25       0.353
  WS02006243           JUNCTION      0.00   361.28     0  05:11           0        4.25       0.120
  WS02006245           JUNCTION      0.00   366.55     0  05:11           0        4.26       0.226
  WS02006247           JUNCTION      0.00   371.08     0  05:11           0        4.26       0.169
  WS02006248           JUNCTION      0.00   376.14     0  05:11           0        4.27       0.099
  WS02006249           JUNCTION      0.00   468.68     0  02:30           0        4.62       0.203
  WS02006239           JUNCTION      0.00   329.49     0  06:01           0        4.27       0.216
  WS02006251           JUNCTION      0.08   468.67     0  02:39     0.00217        4.69       0.181
  WS02006252           JUNCTION      0.00   400.00     0  02:30           0        4.21       0.012
  WS02006253           JUNCTION      1.99   147.95     0  02:27     0.00928        0.48       0.816
  WS02006256           JUNCTION      0.00   983.00     0  02:40           0        9.17      -0.021
  WS02004138           JUNCTION      0.00   379.92     0  04:10           0        4.76       0.061
  WS02004139           JUNCTION      0.32   378.85     0  01:50     0.00905        4.77       0.661
  WS02004407           JUNCTION      0.00   786.48     0  02:47           0        10.7       0.076
  WS02006228           JUNCTION      0.00   781.25     0  03:06           0        10.8       0.153
  WS02006229           JUNCTION      0.00   783.17     0  03:05           0        10.8       0.117
  WS02006280           JUNCTION      0.00   413.57     0  03:02           0        2.17       0.005
  WS02006284           JUNCTION      0.10   413.52     0  03:02      0.0027        2.17       0.041
  WS02006287           JUNCTION      0.00   413.18     0  03:01           0        2.17       0.033
  WSF200               JUNCTION      0.00   785.55     0  02:49           0        10.5       0.047
  HS02004901           JUNCTION     20.36    20.36     0  03:01      0.0901      0.0904       1.991
  HS02004881           JUNCTION      7.95    84.18     0  03:01      0.0378        0.41       0.080
  HS02004876           JUNCTION     14.96    76.75     0  03:01      0.0728       0.373       0.148
  HS02004870           JUNCTION     14.89    62.15     0  03:01      0.0716         0.3       0.037
  HS02004862           JUNCTION     15.28    47.68     0  03:01      0.0788       0.229       0.077
  HS02004856           JUNCTION     11.18    32.72     0  03:01      0.0539       0.152       0.964
  HS02004852           JUNCTION      0.00    21.94     0  03:01           0      0.0979       0.059
  HS02004848           JUNCTION     34.61    34.61     0  03:01       0.174       0.174       0.028
  HS02004842           JUNCTION      0.00    12.41     0  03:01           0      0.0895      16.997
  HS02004837           JUNCTION     31.84    43.95     0  03:01       0.303        0.38       0.215
  HS02004830           JUNCTION      0.15    43.85     0  03:01     0.00423        0.37       0.334
  HS02004824           JUNCTION     42.39    85.90     0  03:01       0.225       0.594       0.091
  HS02004817           JUNCTION      0.60    86.28     0  03:01      0.0169        0.61       2.809
  HS02004807           JUNCTION     27.35   112.31     0  03:01       0.131       0.725       0.605
  HS02004802           JUNCTION      0.00   111.36     0  03:01           0       0.723       0.547
  HS02004799           JUNCTION     22.08   258.91     0  03:01       0.107        1.24       0.223
  HS02004792           JUNCTION    102.90   238.00     0  03:01        0.47        1.14       0.036
  HS02004788           JUNCTION     34.16   135.93     0  03:01       0.199       0.669       0.059
  HS02004785           JUNCTION      0.15   103.51     0  03:01     0.00423       0.471       0.106
  HS02004777           JUNCTION      0.03   104.15     0  03:01    0.000846       0.472       1.115
  HS02004770           JUNCTION     85.35   105.10     0  03:01       0.385       0.473       0.659
  HS02004480           JUNCTION      0.00   302.42     0  03:01           0        1.46       0.076
  HS02004479           JUNCTION      0.00    44.90     0  03:02           0       0.232       0.317
  HS02004478           JUNCTION      0.00   413.04     0  03:01           0        2.17       0.014
  YS02001745           JUNCTION    336.84   374.73     0  02:28        2.69        2.69       0.411
  YS02001748           JUNCTION      0.04   556.63     0  02:27     0.00127        2.68       0.795
  YS02001751           JUNCTION      0.01   354.21     0  02:18     0.00031        2.65       0.910
  YS02001754           JUNCTION      0.26   342.45     0  03:01     0.00733        2.64       0.949
  YS02001762           JUNCTION      0.00   311.56     0  02:43           0        1.78       1.196
  YS02001765           JUNCTION      0.00   311.64     0  02:42           0        1.78       1.386
  YS02001767           JUNCTION      0.54   312.26     0  02:42      0.0151        1.81       2.019
  YS02001770           JUNCTION    415.94   518.81     0  03:06        3.01        3.22       0.995
  YS02001774           JUNCTION      0.00   519.43     0  03:08           0        1.61       1.580
  YS02001779           JUNCTION      0.01   519.73     0  03:06    0.000141        1.58       0.989
  YS02001882           JUNCTION      0.00    26.69     0  02:27           0      0.0204      12.538
  YS02001884           JUNCTION      0.00    56.61     0  02:27           0      0.0574      12.341
  YS02001759           JUNCTION    399.49   613.61     0  02:43        2.78        4.32       0.531
  YS02001887           JUNCTION    494.68   495.44     0  03:01        3.19        3.22       0.270
  YS02001890           JUNCTION      0.00   495.04     0  03:01           0        3.18       0.293
  YS02001898           JUNCTION      0.00   495.31     0  03:01           0        3.16       0.106
  YS02001901           JUNCTION      0.00   495.14     0  03:01           0        3.16       0.219
  YS02001904           JUNCTION      0.00   495.21     0  03:01           0        3.16       0.202
  YS02001907           JUNCTION      0.00   946.35     0  03:01           0        7.02       0.348
  YS02001910           JUNCTION      0.00   455.46     0  03:01           0        3.87       0.313
  YS02001915           JUNCTION    296.36   455.17     0  03:01        2.25        3.88       0.158
  YS02001918           JUNCTION      0.00   211.64     0  03:30           0        1.64       0.121
  YS02001619           JUNCTION    290.53   290.53     0  03:01        2.24        2.24       0.542
  YS02001629           JUNCTION      0.00   199.89     0  02:38           0         1.7       1.711
  YS02001641           JUNCTION      0.00   418.70     0  02:38           0        4.26       0.501
  YS02001644           JUNCTION    321.01  1289.95     0  03:06        2.59         9.8       0.267
  YS02001652           JUNCTION      0.00   382.41     0  03:01           0        2.34       0.990
  YS02001655           JUNCTION      0.15   381.72     0  03:01     0.00434        2.37       1.058
  YS02001920           JUNCTION      2.87   190.57     0  03:29      0.0809        1.63       0.185
  YS02001923           JUNCTION      0.04   170.64     0  02:49     0.00106        1.55       0.055
  YS02001926           JUNCTION      0.05   154.86     0  03:01     0.00147        1.56       0.211
  YS02001929           JUNCTION    151.13   151.13     0  03:01        1.56        1.56       0.037
  YS02001658           JUNCTION      0.00   623.87     0  02:24           0         2.4       1.013
  YS02001661           JUNCTION      0.00   648.12     0  02:42           0        2.86      -0.438
  YS02001664           JUNCTION    361.21   361.21     0  03:01        2.38        2.85       0.255
  YS02001622           JUNCTION      0.00   291.16     0  03:01           0        2.22       1.451
  YS02001633           JUNCTION    326.74   420.04     0  02:38        2.66        4.32       0.747
  YS02001649           JUNCTION      0.00   879.45     0  02:38           0        5.97       0.625
  YS02001757           JUNCTION      0.00  1682.26     0  02:39           0        9.68       0.962
  YS02001895           JUNCTION      0.00   494.87     0  03:01           0        3.17       0.165
  YS02001625           JUNCTION      0.00   290.53     0  03:01           0        2.19       1.805
  YS02163301           JUNCTION      0.00   200.81     0  02:37           0        1.68       1.449
  YS02163601           JUNCTION      0.11   421.02     0  02:38      0.0031        4.29       0.702
  YS02164001           JUNCTION      0.00   420.76     0  02:38           0        4.26       0.475
  YS02001647           JUNCTION      0.00   635.41     0  02:38           0        5.04       0.565
  YSB1154              JUNCTION     26.18    26.18     0  03:01       0.129        0.13       1.131
  YSB6556              JUNCTION      0.00    25.82     0  03:01           0        0.13       0.969
  YSB1174              JUNCTION     20.52    20.52     0  03:01      0.0948      0.0952       1.369
  YSB1171              JUNCTION      0.00    45.30     0  03:01           0       0.231       2.821
  YS02006553           JUNCTION      0.00   697.82     0  03:32           0        6.56       0.238
  YS02006561           JUNCTION      0.00  1024.77     0  02:47           0        9.44       0.009
  YS02006556           JUNCTION      0.00   697.35     0  03:32           0        6.57       0.175
  YS02006558           JUNCTION    433.40  1025.12     0  02:47        2.93        9.47       0.056
  YS02001783           JUNCTION      0.00  1024.83     0  02:47           0        9.44       0.026
  YS02001784           JUNCTION      1.06  1025.62     0  02:47      0.0299        9.47       0.041
  YS02001786           JUNCTION      0.06  1025.86     0  02:47     0.00159        9.47       0.037
  YS02001788           JUNCTION      0.07  1025.85     0  02:47       0.002        9.47       0.023
  YS02001790           JUNCTION      0.15  1025.99     0  02:47     0.00437        9.47       0.026
  YS02001791           JUNCTION      0.00  1025.96     0  02:47           0        9.46       0.013
  YS02001793           JUNCTION      0.00  1026.24     0  02:47           0        9.46      -0.000
  WSC                  OUTFALL       0.00   961.52     0  03:14           0        15.7       0.000
  JK-storage           STORAGE       0.00  1026.02     0  02:47           0        9.62      -6.878
  CC-storage           STORAGE       0.00  1683.98     0  02:39           0        7.97       0.401
  XR-storage           STORAGE     844.76   844.76     0  03:01        11.8        12.4      -0.001
  
  
  **********************
  Node Surcharge Summary
  **********************
  
  Surcharging occurs when water rises above the top of the highest conduit.
  ---------------------------------------------------------------------
                                               Max. Height   Min. Depth
                                   Hours       Above Crown    Below Rim
  Node                 Type      Surcharged         Meters       Meters
  ---------------------------------------------------------------------
  WS02004401           JUNCTION        0.78          0.090        1.570
  WS02004402           JUNCTION        0.82          0.095        1.645
  WS02004403           JUNCTION        0.83          0.086        1.944
  WS02004404           JUNCTION        1.39          0.149        2.631
  WS02004406           JUNCTION        1.01          0.094        2.356
  WS02004405           JUNCTION        1.20          0.126        2.674
  WS02006109           JUNCTION        4.10          0.421        1.399
  WS02006110           JUNCTION        2.32          0.185        1.665
  WS02006112           JUNCTION        2.62          0.360        1.320
  WS02006115           JUNCTION        0.30          0.028        2.222
  WS02006116           JUNCTION        0.40          0.037        2.253
  WS02006230           JUNCTION        1.82          0.360        1.210
  WS02006231           JUNCTION        2.24          0.435        1.095
  WS02006232           JUNCTION        4.26          0.609        0.871
  WS02006234           JUNCTION        3.32          0.551        0.689
  WS02006235           JUNCTION        3.82          0.615        0.675
  WS02006238           JUNCTION        3.98          0.634        0.796
  WS02006240           JUNCTION        2.93          0.864        0.526
  WS02006242           JUNCTION        3.04          0.820        0.000
  WS02006243           JUNCTION        2.49          0.583        0.187
  WS02006245           JUNCTION        2.05          0.565        0.285
  WS02006247           JUNCTION        2.06          0.496        0.264
  WS02006248           JUNCTION        1.65          0.380        0.000
  WS02006249           JUNCTION        1.74          0.390        0.000
  WS02006239           JUNCTION        3.17          0.644        0.646
  WS02006251           JUNCTION        0.96          0.825        0.355
  WS02006252           JUNCTION        2.05          1.018        0.082
  WS02006253           JUNCTION        1.01          1.369        1.111
  WS02006256           JUNCTION        7.12          2.050        0.000
  WS02006228           JUNCTION        4.03          0.528        1.672
  YS02001748           JUNCTION        5.27          0.676        0.514
  YS02001751           JUNCTION        5.47          0.864        0.336
  YS02001754           JUNCTION        5.66          0.841        0.309
  YS02001762           JUNCTION        5.87          1.054        0.096
  YS02001765           JUNCTION        5.83          1.008        0.092
  YS02001767           JUNCTION        5.81          0.959        0.071
  YS02001770           JUNCTION        5.80          0.903        0.017
  YS02001774           JUNCTION        5.86          0.988        0.062
  YS02001779           JUNCTION        5.64          0.680        0.000
  YS02001882           JUNCTION        0.94          0.620        0.210
  YS02001884           JUNCTION        0.97          0.659        0.211
  YS02001759           JUNCTION        5.89          1.077        0.133
  YS02001887           JUNCTION        1.05          0.745        0.205
  YS02001890           JUNCTION        1.10          0.760        0.000
  YS02001898           JUNCTION        0.90          0.527        0.213
  YS02001901           JUNCTION        1.02          0.673        0.197
  YS02001904           JUNCTION        0.99          0.639        0.211
  YS02001907           JUNCTION        1.78          0.950        0.000
  YS02001910           JUNCTION        1.19          0.771        0.329
  YS02001915           JUNCTION        0.92          0.578        0.422
  YS02001918           JUNCTION        0.69          0.237        0.573
  YS02001619           JUNCTION        5.45          0.610        0.000
  YS02001629           JUNCTION        5.46          0.470        0.000
  YS02001641           JUNCTION        5.84          0.939        0.161
  YS02001644           JUNCTION        5.85          0.920        0.000
  YS02001652           JUNCTION        5.71          1.130        0.000
  YS02001655           JUNCTION        5.48          1.200        0.000
  YS02001920           JUNCTION        0.73          0.311        0.829
  YS02001658           JUNCTION        5.30          1.300        0.000
  YS02001661           JUNCTION        0.22          1.311        0.079
  YS02001622           JUNCTION        5.49          0.620        0.000
  YS02001633           JUNCTION        5.83          0.929        0.131
  YS02001649           JUNCTION        5.87          1.050        0.000
  YS02001757           JUNCTION        5.97          1.175        0.035
  YS02001895           JUNCTION        0.91          0.562        0.188
  YS02001625           JUNCTION        5.75          0.780        0.000
  YS02163301           JUNCTION        5.80          0.898        0.132
  YS02163601           JUNCTION        5.87          0.991        0.089
  YS02164001           JUNCTION        5.83          0.922        0.178
  YS02001647           JUNCTION        5.72          0.805        0.095
  YS02006553           JUNCTION        1.87          0.966        0.224
  YS02006561           JUNCTION        0.73          0.282        0.868
  YS02006556           JUNCTION        1.44          0.882        0.468
  YS02006558           JUNCTION        1.41          0.860        0.540
  YS02001783           JUNCTION        1.53          0.687        0.913
  YS02001784           JUNCTION        1.54          1.136        0.354
  YS02001786           JUNCTION        1.52          1.276        0.154
  YS02001788           JUNCTION        1.43          1.480        0.000
  YS02001790           JUNCTION        2.07          1.157        0.000
  YS02001791           JUNCTION        2.09          0.995        0.925
  YS02001793           JUNCTION        2.15          1.072        1.528
  
  
  *********************
  Node Flooding Summary
  *********************
  
  Flooding refers to all water that overflows a node, whether it ponds or not.
  --------------------------------------------------------------------------
                                                             Total   Maximum
                                 Maximum   Time of Max       Flood    Ponded
                        Hours       Rate    Occurrence      Volume     Depth
  Node                 Flooded       LPS   days hr:min    10^6 ltr    Meters
  --------------------------------------------------------------------------
  WS02006242              0.01     41.52      0  05:13       0.000     0.000
  WS02006248              0.01     24.45      0  01:49       0.000     0.000
  WS02006249              0.92    215.60      0  02:39       0.342     0.000
  WS02006256              4.25    805.54      0  02:45       4.933     0.000
  YS02001779              2.79    519.25      0  03:06       1.558     0.000
  YS02001890              0.01      0.96      0  02:59       0.000     0.000
  YS02001907              0.56    413.84      0  03:01       0.442     0.000
  YS02001619              0.01     17.57      0  02:27       0.000     0.000
  YS02001629              0.01     35.52      0  02:27       0.000     0.000
  YS02001644              4.09   1289.89      0  03:06       7.690     0.000
  YS02001652              0.01      4.34      0  03:37       0.000     0.000
  YS02001655              0.01     32.96      0  02:24       0.000     0.000
  YS02001658              0.01    336.17      0  02:24       0.000     0.000
  YS02001622              0.01     32.64      0  02:25       0.000     0.000
  YS02001649              0.05     35.18      0  02:47       0.002     0.000
  YS02001625              1.16    236.70      0  03:01       0.453     0.000
  YS02001788              0.01     78.24      0  02:25       0.000     0.000
  YS02001790              0.01     78.79      0  02:24       0.000     0.000
  JK-storage              1.18    667.27      0  03:00       1.153     0.000
  XR-storage              5.88    740.35      0  03:01       6.734     0.000
  
  
  **********************
  Storage Volume Summary
  **********************
  
  --------------------------------------------------------------------------------------------------
                         Average     Avg  Evap Exfil       Maximum     Max    Time of Max    Maximum
                          Volume    Pcnt  Pcnt  Pcnt        Volume    Pcnt     Occurrence    Outflow
  Storage Unit           1000 m3    Full  Loss  Loss       1000 m3    Full    days hr:min        LPS
  --------------------------------------------------------------------------------------------------
  JK-storage               0.114      39     0     0         0.291     100       0  02:25     983.00
  CC-storage               3.108      20     0     0         3.903      25       0  03:06     400.00
  XR-storage               0.910      98     0     0         0.926     100       0  01:56     379.92
  
  
  ***********************
  Outfall Loading Summary
  ***********************
  
  ---------------------------------------------------------------------------------------------------------------------------------
                         Flow       Avg       Max       Total         Total         Total         Total         Total         Total
                         Freq      Flow      Flow      Volume           COD            SS            TN            TP         NH4-N
  Outfall Node           Pcnt       LPS       LPS    10^6 ltr            kg            kg            kg            kg            kg
  ---------------------------------------------------------------------------------------------------------------------------------
  WSC                   99.99    619.79    961.52      15.732      1698.564      2954.018        94.724        10.853        56.591
  ---------------------------------------------------------------------------------------------------------------------------------
  System                99.99    619.79    961.52      15.732      1698.564      2954.018        94.724        10.853        56.591
  
  
  ********************
  Link Flow Summary
  ********************
  
  -----------------------------------------------------------------------------
                                 Maximum  Time of Max   Maximum    Max/    Max/
                                  |Flow|   Occurrence   |Veloc|    Full    Full
  Link                 Type          LPS  days hr:min     m/sec    Flow   Depth
  -----------------------------------------------------------------------------
  WS02003066WSF200     CONDUIT    785.55     0  02:49      3.10    0.13    0.28
  WS02006287WS02006284 CONDUIT    413.42     0  03:02      2.04    0.19    0.30
  WS02006284WS02006280 CONDUIT    413.57     0  03:02      2.28    0.17    0.28
  WS02006280WS02006229 CONDUIT    413.61     0  03:02      3.68    0.09    0.20
  WS02006229WS02006228 CONDUIT    781.25     0  03:06      1.55    2.59    1.00
  WS02006256WS02006235 CONDUIT    288.92     0  00:00      4.23    3.06    1.00
  WS02006253WS02006251 CONDUIT    136.82     0  05:51      0.47    0.41    1.00
  WS02006252WS02006251 CONDUIT    404.54     0  05:53      3.22    1.48    1.00
  WS02006251WS02006249 CONDUIT    468.68     0  02:30      1.22    1.35    1.00
  WS02006249WS02006248 CONDUIT    376.14     0  05:11      1.19    2.06    1.00
  WS02006248WS02006247 CONDUIT    371.08     0  05:11      1.16    0.81    1.00
  WS02006247WS02006245 CONDUIT    366.55     0  05:11      1.14    2.91    1.00
  WS02006245WS02006243 CONDUIT    361.28     0  05:11      1.17    1.07    1.00
  WS02006243WS02006242 CONDUIT    352.08     0  07:01      1.06    0.75    1.00
  WS02006242WS02006240 CONDUIT    339.43     0  07:01      0.99    1.35    1.00
  WS02006240WS02006239 CONDUIT    329.49     0  06:01      1.02    1.04    1.00
  WS02006239WS02006238 CONDUIT    330.17     0  06:01      0.89    1.06    1.00
  WS02006238WS02006235 CONDUIT    330.01     0  06:02      1.46    0.74    1.00
  WS02006235WS02006234 CONDUIT    523.14     0  06:40      1.36    5.52    1.00
  WS02006234WS02006232 CONDUIT    523.34     0  06:40      1.39    1.06    1.00
  WS02006232WS02006231 CONDUIT    523.23     0  06:40      1.36    1.10    1.00
  WS02006231WS02006230 CONDUIT    522.95     0  06:40      1.46    7.93    1.00
  WS02006230WS02006229 CONDUIT    533.57     0  05:53      1.39   11.87    1.00
  WS02006228WS02006109 CONDUIT    781.20     0  03:06      1.55    3.41    1.00
  WS02006116WS02004401 CONDUIT    786.18     0  02:47      1.00    1.08    1.00
  WS02006115WS02006116 CONDUIT    786.12     0  02:47      1.00    1.01    1.00
  WS02006113WS02006111 CONDUIT    780.54     0  02:29      2.61    0.94    0.72
  WS02006112WS02006115 CONDUIT    786.01     0  02:47      1.00    0.46    1.00
  WS02006111WS02006112 CONDUIT    774.40     0  03:07      1.77    0.37    0.85
  WS02006110WS02006113 CONDUIT    782.23     0  03:06      1.70    0.71    0.87
  WS02006109WS02006110 CONDUIT    782.26     0  03:06      1.56    1.50    1.00
  WS02004411WS02004412 CONDUIT    785.43     0  02:48      1.13    1.12    0.83
  WS02004401WS02004402 CONDUIT    786.20     0  02:47      1.00    0.94    1.00
  WS02004413WS02003067 CONDUIT    785.38     0  02:48      1.38    0.34    0.68
  WS02004412WS02004413 CONDUIT    785.36     0  02:48      1.06    0.53    0.89
  WS02004410WS02004411 CONDUIT    785.61     0  02:48      1.12    1.07    0.84
  WS02004409WS02004410 CONDUIT    785.90     0  02:47      1.12    1.02    0.84
  WS02004407WS02004409 CONDUIT    786.32     0  02:47      1.61    0.28    0.60
  WS02004406WS02004407 CONDUIT    786.48     0  02:47      1.38    0.35    0.68
  WS02004405WS02004406 CONDUIT    786.41     0  02:47      1.00    1.55    1.00
  WS02004404WS02004405 CONDUIT    786.38     0  02:47      1.00    7.70    1.00
  WS02004403WS02004404 CONDUIT    786.22     0  02:47      1.00    0.57    1.00
  WS02004402WS02004403 CONDUIT    786.17     0  02:47      1.00    1.13    1.00
  WS02004139WS02001211 CONDUIT    364.79     0  01:50      0.57    0.46    0.56
  WS02004138WS02004139 CONDUIT    378.53     0  01:50      2.39    0.08    0.42
  WS02003067WS02003066 CONDUIT    785.51     0  02:48      1.50    0.25    0.47
  WS02001213WS02003059 CONDUIT    355.21     0  04:14      0.59    0.59    0.74
  WS02001212WS02001213 CONDUIT    355.60     0  04:13      1.20    0.55    0.43
  WS02001211WS02001212 CONDUIT    359.30     0  01:51      0.73    0.27    0.61
  WS02003072WS02003073 CONDUIT    959.87     0  03:13      1.74    2.07    0.49
  WS02003069WS02003072 CONDUIT    959.91     0  03:13      1.63    0.46    0.52
  WS02003060WS02003069 CONDUIT    959.92     0  03:12      1.88    0.38    0.46
  WS02003059WS02003060 CONDUIT    355.42     0  04:14      0.82    0.23    0.65
  HS02004901HS02004770 CONDUIT     20.53     0  03:01      0.07    0.08    0.42
  HS02004876HS02004881 CONDUIT     76.54     0  03:01      0.95    0.81    0.12
  HS02004870HS02004876 CONDUIT     61.90     0  03:01      0.65    0.04    0.14
  HS02004842HS02004848 CONDUIT     12.41     0  03:01      0.06    0.01    0.31
  HS02004837HS02004842 CONDUIT     12.98     0  03:02      0.42    0.01    0.32
  HS02004830HS02004837 CONDUIT     43.70     0  03:01      0.57    0.04    0.11
  HS02004824HS02004830 CONDUIT     43.66     0  03:01      0.59    0.06    0.11
  HS02004817HS02004824 CONDUIT     85.68     0  03:01      0.26    0.04    0.48
  HS02004770HS02004777 CONDUIT    104.12     0  03:01      0.35    0.19    0.43
  HS02004799HS02004480 CONDUIT    258.28     0  03:01      0.83    0.33    0.44
  HS02004792HS02004799 CONDUIT    237.02     0  03:01      0.95    0.15    0.36
  HS02004788HS02004792 CONDUIT    135.41     0  03:01      1.06    0.09    0.18
  HS02004785HS02004788 CONDUIT    103.21     0  03:02      0.71    0.78    0.21
  HS02004777HS02004785 CONDUIT    103.36     0  03:01      0.42    0.13    0.35
  HS02004480HS02004478 CONDUIT    302.26     0  03:01      1.26    1.27    0.34
  HS02004479HS02004480 CONDUIT     46.29     0  03:02      0.32    0.04    0.43
  HS02004862HS02004870 CONDUIT     47.43     0  03:01      0.66    0.05    0.10
  HS02004848HS02004852 CONDUIT     21.94     0  03:01      0.45    0.02    0.07
  HS02004856HS02004862 CONDUIT     32.47     0  03:01      0.48    0.03    0.10
  HS02004852HS02004856 CONDUIT     21.85     0  03:02      0.25    0.02    0.13
  HS02004802HS02004478 CONDUIT    111.51     0  03:02      0.45    0.10    0.36
  HS02004478WS02006287 CONDUIT    413.18     0  03:01      1.75    0.12    0.26
  HS02004817HS02004807 CONDUIT     86.13     0  03:01      0.19    0.05    0.63
  HS02004807HS02004802 CONDUIT    111.36     0  03:01      0.38    0.21    0.42
  YS02001759YS02001757 CONDUIT    613.79     0  02:43      0.78    0.44    1.00
  YS02001762YS02001759 CONDUIT    311.80     0  02:41      0.40    0.36    1.00
  YS02001765YS02001762 CONDUIT    311.56     0  02:43      0.40    0.29    1.00
  YS02001770YS02001767 CONDUIT    311.73     0  02:42      0.40    1.23    1.00
  YS02001774YS02001770 CONDUIT    519.43     0  03:08      0.66    0.33    1.00
  YS02001779YS02001774 CONDUIT    519.73     0  03:06      0.66    0.26    1.00
  YS02001649YS02001757 CONDUIT    880.22     0  02:38      1.12    0.53    1.00
  YS02001767YS02001765 CONDUIT    311.64     0  02:42      0.40    0.39    1.00
  YS02006561YS02001783 CONDUIT   1024.83     0  02:47      2.12    0.53    1.00
  YS02001783YS02001784 CONDUIT   1024.56     0  02:47      2.04    1.41    1.00
  YS02001784YS02001785 CONDUIT   1025.80     0  02:47      2.04    2.39    1.00
  YS02001788YS02001790 CONDUIT   1025.83     0  02:47      2.27    0.76    1.00
  YS02001790YS02001791 CONDUIT   1025.96     0  02:47      2.75    1.12    1.00
  YS02001791YS02001793 CONDUIT   1026.24     0  02:47      5.53    0.44    1.00
  YS02001910YS02001907 CONDUIT    455.24     0  03:01      0.58    0.26    1.00
  YS02001786YS02001788 CONDUIT   1025.78     0  02:47      2.18    1.98    1.00
  YS02001915YS02001910 CONDUIT    455.46     0  03:01      0.59    0.23    1.00
  YS02001918YS02001915 CONDUIT    241.68     0  03:32      0.44    0.13    1.00
  YS02001923YS02001920 CONDUIT    187.70     0  03:29      0.71    0.08    1.00
  YS02001926YS02001923 CONDUIT    170.61     0  02:49      0.83    0.24    0.86
  YS02001929YS02001926 CONDUIT    154.80     0  03:01      0.88    0.07    0.76
  YS02001920YS02001918 CONDUIT    211.64     0  03:30      0.69    0.20    1.00
  YS02001629YS02163301 CONDUIT    200.81     0  02:37      0.26    0.25    1.00
  YS02001619YS02001622 CONDUIT    291.16     0  03:01      0.61    0.43    1.00
  YS02001622YS02001625 CONDUIT    290.53     0  03:01      0.37    0.16    1.00
  YS02001625YS02001629 CONDUIT    199.89     0  02:38      0.25    0.10    1.00
  YS02163301YS02001633 CONDUIT    203.58     0  02:28      0.26    0.19    1.00
  YS02163601YS02164001 CONDUIT    420.76     0  02:38      0.54    0.37    1.00
  YS02164001YS02001641 CONDUIT    418.70     0  02:38      0.53    0.57    1.00
  YS02001641YS02001644 CONDUIT    419.74     0  02:38      0.53    1.36    1.00
  YS02001647YS02001649 CONDUIT    634.36     0  02:38      0.81    0.33    1.00
  YS02006553YS02006556 CONDUIT    697.35     0  03:32      0.89    0.60    1.00
  YS02006556YS02006558 CONDUIT    697.94     0  03:32      0.89    0.55    1.00
  YSB6556YSB1171       CONDUIT     25.76     0  03:03      0.09    0.03    0.70
  YS02001907YS02006553 CONDUIT    697.82     0  03:32      0.78    0.82    1.00
  YS02006558YS02006561 CONDUIT   1024.77     0  02:47      3.62    2.27    1.00
  YS02001633YS02163601 CONDUIT    420.91     0  02:38      0.54    0.44    1.00
  YS02001644YS02001647 CONDUIT    635.41     0  02:38      0.81    0.37    1.00
  YS02001745YS02001748 CONDUIT    556.58     0  02:27      1.48    0.21    0.95
  YS02001748YS02001751 CONDUIT    354.19     0  02:18      1.06    0.18    1.00
  YS02001751YS02001754 CONDUIT    342.19     0  03:01      0.92    0.16    1.00
  YS02001754YS02001757 CONDUIT    342.39     0  03:01      0.44    0.14    1.00
  YS02001882YS02001884 CONDUIT     26.69     0  02:27      0.13    0.03    1.00
  YS02001884YS02001887 CONDUIT     56.61     0  02:27      0.09    0.08    1.00
  YS02001890YS02001895 CONDUIT    494.87     0  03:01      0.63    0.23    1.00
  YS02001895YS02001898 CONDUIT    495.31     0  03:01      0.63    0.86    1.00
  YS02001898YS02001901 CONDUIT    495.14     0  03:01      0.63    0.32    1.00
  YS02001901YS02001904 CONDUIT    495.21     0  03:01      0.63    0.77    1.00
  YS02001904YS02001907 CONDUIT    495.14     0  03:01      0.63    0.17    1.00
  YS02001887YS02001890 CONDUIT    495.04     0  03:01      0.63    0.85    1.00
  YS02001652YS02001649 CONDUIT    383.22     0  03:01      0.63    0.19    1.00
  YS02001655YS02001652 CONDUIT    382.41     0  03:01      0.98    0.19    1.00
  YS02001658YS02001655 CONDUIT    381.57     0  03:01      1.22    0.16    1.00
  YS02001661YS02001658 CONDUIT    623.87     0  02:24      1.55    0.24    1.00
  YS02001664YS02001661 CONDUIT    648.12     0  02:42      1.47    0.20    0.75
  YSB1154YSB6556       CONDUIT     25.82     0  03:01      0.17    0.05    0.59
  YSB1174YSB1171       CONDUIT     20.15     0  03:01      0.07    0.03    0.70
  YSB1171HS02004479    CONDUIT     44.90     0  03:02      0.54    0.03    0.55
  HS02004881HS02006253 CONDUIT     84.15     0  03:01      1.91    0.02    0.53
  YS02001793JiankangQianchi CONDUIT   1026.02     0  02:47     14.02    0.08    1.00
  YS02001757CaochengTiaoxuchi CONDUIT   1683.98     0  02:39      2.18    0.74    1.00
  WSF200WS02003060     CONDUIT    785.54     0  02:49      2.26    0.17    0.37
  1                    CONDUIT    961.52     0  03:14      3.29    0.33    0.40
  CC-Pump-1            PUMP       200.00     0  01:45              1.00
  CC-Pump-2            PUMP       200.00     0  02:30              1.00
  JK-Pump-1            PUMP       300.00     0  01:53              1.00
  JK-Pump-2            PUMP       683.00     0  00:00              1.00
  XR-Pump-1            PUMP        95.00     0  01:00              1.00
  XR-Pump-2            PUMP        95.00     0  00:20              1.00
  XR-Pump-3            PUMP        95.00     0  00:10              1.00
  XR-Pump-4            PUMP        95.00     0  00:20              1.00
  
  
  ***************************
  Flow Classification Summary
  ***************************
  
  -------------------------------------------------------------------------------------
                      Adjusted    ---------- Fraction of Time in Flow Class ---------- 
                       /Actual         Up    Down  Sub   Sup   Up    Down  Norm  Inlet 
  Conduit               Length    Dry  Dry   Dry   Crit  Crit  Crit  Crit  Ltd   Ctrl  
  -------------------------------------------------------------------------------------
  WS02003066WSF200        1.00   0.06  0.00  0.00  0.00  0.94  0.00  0.00  0.41  0.00
  WS02006287WS02006284    1.00   0.02  0.01  0.00  0.61  0.35  0.00  0.00  0.62  0.00
  WS02006284WS02006280    1.00   0.03  0.00  0.00  0.00  0.00  0.00  0.97  0.00  0.00
  WS02006280WS02006229    1.00   0.03  0.00  0.00  0.00  0.02  0.00  0.95  0.02  0.00
  WS02006229WS02006228    1.00   0.00  0.00  0.00  1.00  0.00  0.00  0.00  0.00  0.00
  WS02006256WS02006235    1.00   0.00  0.00  0.00  1.00  0.00  0.00  0.00  0.00  0.00
  WS02006253WS02006251    1.00   0.01  0.01  0.00  0.97  0.00  0.00  0.00  0.00  0.00
  WS02006252WS02006251    1.00   0.06  0.00  0.00  0.12  0.00  0.82  0.00  0.00  0.00
  WS02006251WS02006249    1.00   0.00  0.00  0.00  1.00  0.00  0.00  0.00  0.20  0.00
  WS02006249WS02006248    1.00   0.00  0.01  0.00  0.94  0.00  0.05  0.00  0.00  0.00
  WS02006248WS02006247    1.00   0.00  0.00  0.00  0.99  0.00  0.00  0.00  0.08  0.00
  WS02006247WS02006245    1.00   0.00  0.00  0.00  1.00  0.00  0.00  0.00  0.00  0.00
  WS02006245WS02006243    1.00   0.00  0.00  0.00  0.96  0.00  0.00  0.03  0.01  0.00
  WS02006243WS02006242    1.00   0.00  0.00  0.00  1.00  0.00  0.00  0.00  0.17  0.00
  WS02006242WS02006240    1.00   0.00  0.00  0.00  1.00  0.00  0.00  0.00  0.00  0.00
  WS02006240WS02006239    1.00   0.00  0.00  0.00  0.96  0.00  0.00  0.04  0.01  0.00
  WS02006239WS02006238    1.00   0.00  0.00  0.00  1.00  0.00  0.00  0.00  0.00  0.00
  WS02006238WS02006235    1.00   0.00  0.00  0.00  1.00  0.00  0.00  0.00  0.00  0.00
  WS02006235WS02006234    1.00   0.00  0.00  0.00  0.97  0.00  0.03  0.00  0.00  0.00
  WS02006234WS02006232    1.00   0.00  0.00  0.00  1.00  0.00  0.00  0.00  0.09  0.00
  WS02006232WS02006231    1.00   0.00  0.00  0.00  1.00  0.00  0.00  0.00  0.00  0.00
  WS02006231WS02006230    1.00   0.00  0.00  0.00  0.79  0.00  0.21  0.00  0.00  0.00
  WS02006230WS02006229    1.00   0.00  0.00  0.00  1.00  0.00  0.00  0.00  0.01  0.00
  WS02006228WS02006109    1.00   0.00  0.00  0.00  1.00  0.00  0.00  0.00  0.00  0.00
  WS02006116WS02004401    1.00   0.01  0.00  0.00  0.99  0.00  0.00  0.00  0.00  0.00
  WS02006115WS02006116    1.00   0.01  0.00  0.00  0.98  0.00  0.00  0.01  0.01  0.00
  WS02006113WS02006111    1.00   0.00  0.00  0.00  0.04  0.95  0.00  0.00  0.11  0.00
  WS02006112WS02006115    1.00   0.01  0.00  0.00  0.99  0.00  0.00  0.00  0.00  0.00
  WS02006111WS02006112    1.00   0.01  0.00  0.00  0.99  0.00  0.00  0.00  0.83  0.00
  WS02006110WS02006113    1.00   0.00  0.00  0.00  1.00  0.00  0.00  0.00  0.00  0.00
  WS02006109WS02006110    1.00   0.00  0.00  0.00  1.00  0.00  0.00  0.00  0.00  0.00
  WS02004411WS02004412    1.00   0.04  0.00  0.00  0.96  0.00  0.00  0.00  0.00  0.00
  WS02004401WS02004402    1.00   0.01  0.00  0.00  0.99  0.00  0.00  0.00  0.00  0.00
  WS02004413WS02003067    1.00   0.04  0.02  0.00  0.00  0.00  0.95  0.00  0.00  0.00
  WS02004412WS02004413    1.00   0.04  0.00  0.00  0.96  0.00  0.00  0.00  0.01  0.00
  WS02004410WS02004411    1.00   0.04  0.00  0.00  0.96  0.00  0.00  0.00  0.00  0.00
  WS02004409WS02004410    1.00   0.03  0.00  0.00  0.97  0.00  0.00  0.00  0.00  0.00
  WS02004407WS02004409    1.00   0.03  0.00  0.00  0.96  0.00  0.00  0.00  0.84  0.00
  WS02004406WS02004407    1.00   0.00  0.03  0.00  0.97  0.00  0.00  0.00  0.00  0.00
  WS02004405WS02004406    1.00   0.00  0.00  0.00  1.00  0.00  0.00  0.00  0.01  0.00
  WS02004404WS02004405    1.00   0.00  0.00  0.00  1.00  0.00  0.00  0.00  0.00  0.00
  WS02004403WS02004404    1.00   0.00  0.01  0.00  0.99  0.00  0.00  0.00  0.02  0.00
  WS02004402WS02004403    1.00   0.01  0.00  0.00  0.99  0.00  0.00  0.00  0.00  0.00
  WS02004139WS02001211    1.00   0.00  0.00  0.00  1.00  0.00  0.00  0.00  0.00  0.00
  WS02004138WS02004139    1.00   0.00  0.00  0.00  1.00  0.00  0.00  0.00  1.00  0.00
  WS02003067WS02003066    1.00   0.05  0.00  0.00  0.94  0.00  0.00  0.00  0.00  0.00
  WS02001213WS02003059    1.00   0.00  0.00  0.00  1.00  0.00  0.00  0.00  0.00  0.00
  WS02001212WS02001213    1.00   0.00  0.00  0.00  0.88  0.00  0.12  0.00  0.00  0.00
  WS02001211WS02001212    1.00   0.00  0.00  0.00  1.00  0.00  0.00  0.00  0.00  0.00
  WS02003072WS02003073    1.00   0.00  0.00  0.00  0.00  0.00  0.00  1.00  0.00  0.00
  WS02003069WS02003072    1.00   0.00  0.00  0.00  1.00  0.00  0.00  0.00  0.21  0.00
  WS02003060WS02003069    1.00   0.00  0.00  0.00  0.97  0.03  0.00  0.00  0.12  0.00
  WS02003059WS02003060    1.00   0.00  0.00  0.00  1.00  0.00  0.00  0.00  0.02  0.00
  HS02004901HS02004770    1.00   0.03  0.00  0.00  0.97  0.00  0.00  0.00  0.00  0.00
  HS02004876HS02004881    1.00   0.01  0.00  0.00  0.93  0.06  0.00  0.00  0.00  0.00
  HS02004870HS02004876    1.00   0.00  0.00  0.00  1.00  0.00  0.00  0.00  0.95  0.00
  HS02004842HS02004848    1.00   0.00  0.03  0.00  0.97  0.00  0.00  0.00  0.55  0.00
  HS02004837HS02004842    1.00   0.00  0.00  0.00  1.00  0.00  0.00  0.00  0.11  0.00
  HS02004830HS02004837    1.00   0.00  0.00  0.00  1.00  0.00  0.00  0.00  0.99  0.00
  HS02004824HS02004830    1.00   0.00  0.00  0.00  1.00  0.00  0.00  0.00  0.00  0.00
  HS02004817HS02004824    1.00   0.00  0.00  0.00  1.00  0.00  0.00  0.00  1.00  0.00
  HS02004770HS02004777    1.00   0.00  0.03  0.00  0.97  0.00  0.00  0.00  0.02  0.00
  HS02004799HS02004480    1.00   0.00  0.01  0.00  0.96  0.00  0.03  0.00  0.00  0.00
  HS02004792HS02004799    1.00   0.00  0.00  0.00  1.00  0.00  0.00  0.00  0.98  0.00
  HS02004788HS02004792    1.00   0.00  0.00  0.00  1.00  0.00  0.00  0.00  0.98  0.00
  HS02004785HS02004788    1.00   0.00  0.00  0.00  1.00  0.00  0.00  0.00  0.00  0.00
  HS02004777HS02004785    1.00   0.00  0.00  0.00  1.00  0.00  0.00  0.00  0.12  0.00
  HS02004480HS02004478    1.00   0.03  0.00  0.00  0.68  0.00  0.00  0.28  0.00  0.00
  HS02004479HS02004480    1.00   0.01  0.00  0.00  0.99  0.00  0.00  0.00  0.11  0.00
  HS02004862HS02004870    1.00   0.00  0.00  0.00  1.00  0.00  0.00  0.00  0.03  0.00
  HS02004848HS02004852    1.00   0.03  0.00  0.00  0.97  0.00  0.00  0.00  0.62  0.00
  HS02004856HS02004862    1.00   0.00  0.04  0.00  0.96  0.00  0.00  0.00  0.83  0.00
  HS02004852HS02004856    1.00   0.03  0.00  0.00  0.97  0.00  0.00  0.00  0.85  0.00
  HS02004802HS02004478    1.00   0.03  0.00  0.00  0.97  0.00  0.00  0.00  0.02  0.00
  HS02004478WS02006287    1.00   0.04  0.00  0.00  0.75  0.21  0.00  0.00  0.64  0.00
  HS02004817HS02004807    1.00   0.00  0.03  0.00  0.97  0.00  0.00  0.00  0.01  0.00
  HS02004807HS02004802    1.00   0.03  0.00  0.00  0.97  0.00  0.00  0.00  0.00  0.00
  YS02001759YS02001757    1.00   0.00  0.00  0.00  1.00  0.00  0.00  0.00  0.16  0.00
  YS02001762YS02001759    1.00   0.00  0.00  0.00  1.00  0.00  0.00  0.00  0.03  0.00
  YS02001765YS02001762    1.00   0.00  0.00  0.00  1.00  0.00  0.00  0.00  0.13  0.00
  YS02001770YS02001767    1.00   0.00  0.00  0.00  1.00  0.00  0.00  0.00  0.00  0.00
  YS02001774YS02001770    1.00   0.00  0.03  0.00  0.97  0.00  0.00  0.00  0.03  0.00
  YS02001779YS02001774    1.00   0.00  0.00  0.00  1.00  0.00  0.00  0.00  0.18  0.00
  YS02001649YS02001757    1.00   0.00  0.00  0.00  1.00  0.00  0.00  0.00  0.16  0.00
  YS02001767YS02001765    1.00   0.00  0.00  0.00  1.00  0.00  0.00  0.00  0.00  0.00
  YS02006561YS02001783    1.00   0.04  0.00  0.00  0.29  0.67  0.00  0.00  0.51  0.00
  YS02001783YS02001784    1.00   0.00  0.04  0.00  0.96  0.00  0.00  0.00  0.00  0.00
  YS02001784YS02001785    1.00   0.00  0.00  0.00  1.00  0.00  0.00  0.00  0.17  0.00
  YS02001788YS02001790    1.00   0.00  0.00  0.00  0.35  0.65  0.00  0.00  0.44  0.00
  YS02001790YS02001791    1.00   0.00  0.00  0.00  0.31  0.69  0.00  0.00  0.51  0.00
  YS02001791YS02001793    1.00   0.00  0.00  0.00  0.32  0.68  0.00  0.00  0.01  0.00
  YS02001910YS02001907    1.00   0.00  0.00  0.00  0.99  0.00  0.00  0.01  0.12  0.00
  YS02001786YS02001788    1.00   0.00  0.00  0.00  0.35  0.65  0.00  0.00  0.00  0.00
  YS02001915YS02001910    1.00   0.00  0.00  0.00  0.99  0.01  0.00  0.00  0.15  0.00
  YS02001918YS02001915    1.00   0.00  0.00  0.00  0.99  0.00  0.00  0.00  0.54  0.00
  YS02001923YS02001920    1.00   0.00  0.00  0.00  1.00  0.00  0.00  0.00  0.83  0.00
  YS02001926YS02001923    1.00   0.00  0.02  0.00  0.12  0.00  0.87  0.00  0.00  0.00
  YS02001929YS02001926    1.00   0.00  0.03  0.00  0.97  0.00  0.00  0.00  0.76  0.00
  YS02001920YS02001918    1.00   0.00  0.00  0.00  1.00  0.00  0.00  0.00  0.00  0.00
  YS02001629YS02163301    1.00   0.03  0.00  0.00  0.96  0.00  0.00  0.00  0.00  0.00
  YS02001619YS02001622    1.00   0.03  0.00  0.00  0.97  0.00  0.00  0.00  0.00  0.00
  YS02001622YS02001625    1.00   0.03  0.00  0.00  0.97  0.00  0.00  0.00  0.04  0.00
  YS02001625YS02001629    1.00   0.03  0.01  0.00  0.94  0.00  0.01  0.00  0.00  0.00
  YS02163301YS02001633    1.00   0.00  0.03  0.00  0.97  0.00  0.00  0.00  0.00  0.00
  YS02163601YS02164001    1.00   0.00  0.02  0.00  0.98  0.00  0.00  0.00  0.00  0.00
  YS02164001YS02001641    1.00   0.00  0.02  0.00  0.98  0.00  0.00  0.00  0.06  0.00
  YS02001641YS02001644    1.00   0.00  0.00  0.00  1.00  0.00  0.00  0.00  0.00  0.00
  YS02001647YS02001649    1.00   0.00  0.04  0.00  0.96  0.00  0.00  0.00  0.01  0.00
  YS02006553YS02006556    1.00   0.00  0.00  0.00  1.00  0.00  0.00  0.00  0.03  0.00
  YS02006556YS02006558    1.00   0.00  0.00  0.00  1.00  0.00  0.00  0.00  0.00  0.00
  YSB6556YSB1171          1.00   0.01  0.02  0.00  0.97  0.00  0.00  0.00  0.00  0.00
  YS02001907YS02006553    1.00   0.00  0.01  0.00  0.99  0.00  0.00  0.00  0.00  0.00
  YS02006558YS02006561    1.00   0.04  0.00  0.00  0.17  0.79  0.00  0.00  0.48  0.00
  YS02001633YS02163601    1.00   0.00  0.00  0.00  1.00  0.00  0.00  0.00  0.15  0.00
  YS02001644YS02001647    1.00   0.00  0.04  0.00  0.96  0.00  0.00  0.00  0.00  0.00
  YS02001745YS02001748    1.00   0.00  0.00  0.00  0.89  0.01  0.00  0.10  0.04  0.00
  YS02001748YS02001751    1.00   0.00  0.00  0.00  0.97  0.03  0.00  0.00  0.15  0.00
  YS02001751YS02001754    1.00   0.00  0.00  0.00  0.95  0.00  0.00  0.05  0.02  0.00
  YS02001754YS02001757    1.00   0.00  0.00  0.00  1.00  0.00  0.00  0.00  0.18  0.00
  YS02001882YS02001884    1.00   0.03  0.00  0.00  0.97  0.00  0.00  0.00  0.00  0.00
  YS02001884YS02001887    1.00   0.01  0.01  0.00  0.97  0.00  0.00  0.00  0.00  0.00
  YS02001890YS02001895    1.00   0.00  0.03  0.00  0.96  0.00  0.00  0.00  0.00  0.00
  YS02001895YS02001898    1.00   0.04  0.00  0.00  0.96  0.00  0.01  0.00  0.00  0.00
  YS02001898YS02001901    1.00   0.04  0.00  0.00  0.96  0.00  0.00  0.00  0.01  0.00
  YS02001901YS02001904    1.00   0.04  0.00  0.00  0.96  0.00  0.00  0.00  0.00  0.00
  YS02001904YS02001907    1.00   0.00  0.04  0.00  0.96  0.00  0.00  0.00  0.00  0.00
  YS02001887YS02001890    1.00   0.00  0.00  0.00  0.99  0.00  0.01  0.00  0.00  0.00
  YS02001652YS02001649    1.00   0.00  0.00  0.00  1.00  0.00  0.00  0.00  0.16  0.00
  YS02001655YS02001652    1.00   0.00  0.00  0.00  0.95  0.00  0.00  0.04  0.02  0.00
  YS02001658YS02001655    1.00   0.00  0.03  0.00  0.94  0.02  0.00  0.00  0.08  0.00
  YS02001661YS02001658    1.00   0.03  0.00  0.00  0.89  0.08  0.00  0.00  0.08  0.00
  YS02001664YS02001661    1.00   0.03  0.00  0.00  0.89  0.08  0.00  0.00  0.19  0.00
  YSB1154YSB6556          1.00   0.03  0.00  0.00  0.97  0.00  0.00  0.00  0.01  0.00
  YSB1174YSB1171          1.00   0.01  0.01  0.00  0.98  0.00  0.00  0.00  0.00  0.00
  YSB1171HS02004479       1.00   0.01  0.00  0.00  0.99  0.00  0.00  0.00  0.10  0.00
  HS02004881HS02006253    1.00   0.01  0.00  0.00  0.77  0.02  0.00  0.20  0.62  0.00
  YS02001793JiankangQianchi    1.00   0.00  0.00  0.00  0.51  0.49  0.00  0.00  0.19  0.00
  YS02001757CaochengTiaoxuchi    1.00   0.00  0.06  0.00  0.94  0.00  0.00  0.00  0.00  0.00
  WSF200WS02003060        1.00   0.00  0.06  0.00  0.36  0.58  0.00  0.00  0.05  0.00
  1                       1.00   0.00  0.00  0.00  0.00  1.00  0.00  0.00  0.38  0.00
  
  
  *************************
  Conduit Surcharge Summary
  *************************
  
  ----------------------------------------------------------------------------
                                                           Hours        Hours 
                         --------- Hours Full --------   Above Full   Capacity
  Conduit                Both Ends  Upstream  Dnstream   Normal Flow   Limited
  ----------------------------------------------------------------------------
  WS02006229WS02006228        4.03      4.18      4.03      5.60         4.02
  WS02006256WS02006235        6.31      6.32      7.11      5.79         0.01
  WS02006253WS02006251        1.57      1.57      1.69      0.01         0.02
  WS02006252WS02006251        1.25      1.25      2.05      1.66         0.01
  WS02006251WS02006249        1.60      1.60      1.74      0.87         0.67
  WS02006249WS02006248        1.64      1.65      1.74      3.77         0.01
  WS02006248WS02006247        1.74      1.74      2.06      0.01         0.01
  WS02006247WS02006245        2.05      2.14      2.05      4.48         1.95
  WS02006245WS02006243        2.13      2.14      2.49      0.07         0.10
  WS02006243WS02006242        2.57      2.57      3.04      0.01         0.01
  WS02006242WS02006240        2.93      2.93      3.21      1.58         0.01
  WS02006240WS02006239        2.99      3.00      3.17      0.29         0.34
  WS02006239WS02006238        3.50      3.50      3.98      0.34         0.41
  WS02006238WS02006235        3.95      3.95      4.17      0.01         0.02
  WS02006235WS02006234        3.32      3.32      3.82      6.29         0.01
  WS02006234WS02006232        3.61      3.61      4.26      0.59         0.57
[...]
  YS02001765YS02001762        5.83      5.83      5.87      0.01         0.01
  YS02001770YS02001767        5.81      5.81      5.81      0.27         0.87
  YS02001774YS02001770        5.80      5.80      5.86      0.01         0.01
  YS02001779YS02001774        5.64      5.64      5.86      0.01         0.01
  YS02001649YS02001757        5.87      5.87      5.97      0.01         0.01
  YS02001767YS02001765        5.81      5.81      5.83      0.01         0.01
  YS02006561YS02001783        0.73      0.73      1.53      0.01         0.01
  YS02001783YS02001784        1.52      1.53      1.54      1.26         1.22
  YS02001784YS02001785        1.52      1.54      1.52      2.44         1.52
  YS02001788YS02001790        1.43      1.43      2.07      0.01         0.01
  YS02001790YS02001791        2.07      2.07      2.09      0.87         0.85
  YS02001791YS02001793        2.09      2.09      2.18      0.01         0.01
  YS02001910YS02001907        1.19      1.19      1.78      0.01         0.01
  YS02001786YS02001788        1.43      1.52      1.43      1.92         1.43
  YS02001915YS02001910        0.92      0.92      1.19      0.01         0.01
  YS02001918YS02001915        0.69      0.69      0.92      0.01         0.01
  YS02001923YS02001920        0.54      0.54      0.73      0.01         0.01
  YS02001920YS02001918        0.69      0.69      0.73      0.01         0.01
  YS02001629YS02163301        5.79      5.79      5.80      0.01         0.01
  YS02001619YS02001622        5.45      5.45      5.49      0.01         0.01
  YS02001622YS02001625        5.49      5.49      5.75      0.01         0.01
  YS02001625YS02001629        5.46      5.46      5.75      0.01         0.01
  YS02163301YS02001633        5.80      5.80      5.84      0.01         0.01
  YS02163601YS02164001        5.83      5.83      5.87      0.01         0.01
  YS02164001YS02001641        5.83      5.83      5.84      0.01         0.03
  YS02001641YS02001644        5.84      5.84      5.85      1.52         1.65
  YS02001647YS02001649        5.72      5.72      5.87      0.01         0.01
  YS02006553YS02006556        1.44      1.44      1.87      0.01         0.01
  YS02006556YS02006558        1.61      1.61      1.94      0.01         0.01
  YS02001907YS02006553        2.42      2.42      2.62      0.01         0.01
  YS02006558YS02006561        0.94      1.41      0.94      2.24         0.94
  YS02001633YS02163601        5.83      5.83      5.87      0.01         0.01
  YS02001644YS02001647        5.72      5.72      5.85      0.01         0.01
  YS02001745YS02001748        0.01      0.01      5.26      0.01         0.01
  YS02001748YS02001751        5.32      5.32      5.47      0.01         0.01
  YS02001751YS02001754        5.47      5.47      5.66      0.01         0.01
  YS02001754YS02001757        5.71      5.71      5.97      0.01         0.01
  YS02001882YS02001884        0.94      0.94      0.97      0.01         0.01
  YS02001884YS02001887        1.02      1.02      1.05      0.01         0.01
  YS02001890YS02001895        0.91      0.91      1.21      0.01         0.01
  YS02001895YS02001898        0.90      0.90      0.91      0.01         0.01
  YS02001898YS02001901        0.92      0.92      1.01      0.01         0.01
  YS02001901YS02001904        0.99      0.99      1.01      0.01         0.01
  YS02001904YS02001907        0.99      0.99      1.90      0.01         0.01
  YS02001887YS02001890        1.10      1.10      1.15      0.01         0.01
  YS02001652YS02001649        5.74      5.74      5.87      0.01         0.01
  YS02001655YS02001652        5.48      5.48      5.71      0.01         0.01
  YS02001658YS02001655        5.30      5.30      5.48      0.01         0.01
  YS02001661YS02001658        0.20      0.20      5.30      0.01         0.01
  YS02001664YS02001661        0.01      0.01      1.06      0.01         0.01
  HS02004881HS02006253        0.01      0.01      1.01      0.01         0.01
  YS02001793JiankangQianchi        2.15      2.15      3.19      0.01         0.01
  YS02001757CaochengTiaoxuchi        5.12      5.12      5.97      0.01         0.01
  
  
  ***************
  Pumping Summary
  ***************
  
  ---------------------------------------------------------------------------------------------------------
                                                  Min       Avg       Max     Total     Power    % Time Off
                        Percent   Number of      Flow      Flow      Flow    Volume     Usage    Pump Curve
  Pump                 Utilized   Start-Ups       LPS       LPS       LPS  10^6 ltr     Kw-hr    Low   High
  ---------------------------------------------------------------------------------------------------------
  CC-Pump-1               59.65           7      0.00    150.84    200.00     2.490      3.37    0.0    7.3
  CC-Pump-2               55.38           5      0.00    103.85    200.00     1.720      2.27    0.0    4.0
  JK-Pump-1               74.46           7      0.00    184.75    300.00     3.313     46.63    0.0    0.0
  JK-Pump-2               68.08           8      0.00    341.75    683.00     5.857     77.42    0.0   97.6
  XR-Pump-1               68.07          10      0.00     61.60     95.00     1.169      6.82    0.0    0.0
  XR-Pump-2               72.32          10      0.00     62.15     95.00     1.282      8.03    0.0    0.0
  XR-Pump-3               74.45           8      0.00     65.18     95.00     1.282      7.86    0.0    0.0
  XR-Pump-4               61.69           7      0.00     57.13     95.00     1.026      5.89    0.0    0.0
  
  
  ***************************
  Link Pollutant Load Summary
  ***************************
  
  ------------------------------------------------------------------------------------------
                                 COD            SS            TN            TP         NH4-N
  Link                            kg            kg            kg            kg            kg
  ------------------------------------------------------------------------------------------
  WS02003066WSF200           871.945      1603.322        22.650         1.962        11.894
  WS02006287WS02006284       268.059       498.219         9.345         0.943         5.213
  WS02006284WS02006280       268.547       499.007         9.392         0.949         5.242
  WS02006280WS02006229       268.516       498.951         9.390         0.948         5.241
  WS02006229WS02006228       873.454      1606.382        22.204         1.894        11.592
  WS02006256WS02006235       249.439       455.173         5.361         0.406         2.686
  WS02006253WS02006251        54.220       104.191         1.231         0.094         0.615
  WS02006252WS02006251       352.135       640.520         7.292         0.523         3.574
  WS02006251WS02006249       395.772       725.420         8.318         0.603         4.092
  WS02006249WS02006248       364.784       668.766         7.673         0.556         3.776
  WS02006248WS02006247       364.422       668.123         7.667         0.556         3.773
  WS02006247WS02006245       363.910       667.203         7.655         0.555         3.767
  WS02006245WS02006243       363.022       665.659         7.631         0.553         3.754
  WS02006243WS02006242       362.798       665.266         7.629         0.553         3.754
  WS02006242WS02006240       361.586       663.079         7.604         0.551         3.742
  WS02006240WS02006239       360.701       661.485         7.585         0.550         3.733
  WS02006239WS02006238       359.732       659.766         7.562         0.548         3.721
  WS02006238WS02006235       359.244       658.917         7.544         0.546         3.710
  WS02006235WS02006234       608.144      1113.120        12.892         0.952         6.391
  WS02006234WS02006232       607.429      1111.845        12.877         0.951         6.383
  WS02006232WS02006231       606.782      1110.671        12.864         0.950         6.377
  WS02006231WS02006230       605.918      1109.094        12.847         0.949         6.369
  WS02006230WS02006229       605.531      1108.448        12.836         0.948         6.363
  WS02006228WS02006109       872.568      1604.802        22.181         1.892        11.580
  WS02006116WS02004401       883.546      1623.793        22.963         1.988        12.059
  WS02006115WS02006116       884.722      1625.869        22.997         1.991        12.077
  WS02006113WS02006111       878.266      1613.415        22.911         1.986        12.043
  WS02006112WS02006115       885.950      1628.018        23.041         1.996        12.101
  WS02006111WS02006112       877.851      1612.699        22.899         1.985        12.037
  WS02006110WS02006113       878.943      1614.628        22.935         1.988        12.056
  WS02006109WS02006110       880.115      1616.692        22.977         1.992        12.080
  WS02004411WS02004412       875.369      1609.198        22.783         1.975        11.970
  WS02004401WS02004402       882.401      1621.787        22.922         1.984        12.036
  WS02004413WS02003067       872.932      1605.061        22.678         1.964        11.909
  WS02004412WS02004413       874.043      1606.907        22.739         1.971        11.945
  WS02004410WS02004411       876.470      1611.119        22.818         1.979        11.989
  WS02004409WS02004410       877.449      1612.821        22.852         1.982        12.008
  WS02004407WS02004409       878.337      1614.389        22.877         1.984        12.021
  WS02004406WS02004407       878.688      1615.037        22.882         1.984        12.023
  WS02004405WS02004406       880.095      1617.471        22.945         1.991        12.059
  WS02004404WS02004405       880.975      1619.098        22.944         1.990        12.056
  WS02004403WS02004404       880.464      1618.381        22.857         1.978        12.000
  WS02004402WS02004403       881.357      1619.940        22.890         1.981        12.019
  WS02004139WS02001211       678.500      1116.033        57.027         6.997        35.258
  WS02004138WS02004139       682.024      1121.923        57.291         7.029        35.420
  WS02003067WS02003066       872.106      1603.598        22.657         1.962        11.898
  WS02001213WS02003059       716.074      1175.557        60.807         7.473        37.629
  WS02001212WS02001213       722.514      1186.218        61.323         7.535        37.946
  WS02001211WS02001212       724.084      1188.752        61.466         7.553        38.036
  WS02003072WS02003073      1690.522      2942.064        93.631        10.711        55.895
  WS02003069WS02003072      1694.732      2948.870        93.988        10.755        56.117
  WS02003060WS02003069      1695.874      2950.946        93.994        10.754        56.116
  WS02003059WS02003060       713.654      1171.523        60.624         7.450        37.517
  HS02004901HS02004770        10.271        19.478         0.195         0.015         0.091
  HS02004876HS02004881        37.318        72.579         0.843         0.062         0.416
  HS02004870HS02004876        28.160        54.628         0.678         0.051         0.338
  HS02004842HS02004848         5.467        10.277         0.115         0.008         0.053
  HS02004837HS02004842        10.072        17.581         0.584         0.067         0.347
  HS02004830HS02004837        65.638       112.702         4.556         0.546         2.785
  HS02004824HS02004830        66.388       113.904         4.628         0.555         2.829
  HS02004817HS02004824        88.204       156.973         5.083         0.584         3.051
  HS02004770HS02004777        39.296        75.465         0.819         0.055         0.377
  HS02004799HS02004480       131.410       245.370         3.680         0.335         1.932
  HS02004792HS02004799       119.086       220.662         3.497         0.327         1.853
  HS02004788HS02004792        68.397       126.860         2.388         0.235         1.309
  HS02004785HS02004788        40.735        77.763         0.969         0.074         0.471
  HS02004777HS02004785        40.062        76.670         0.909         0.067         0.434
  HS02004480HS02004478       165.954       312.601         4.243         0.375         2.195
  HS02004479HS02004480        38.148        72.981         0.884         0.079         0.462
  HS02004862HS02004870        21.016        40.117         0.536         0.043         0.270
  HS02004848HS02004852         8.057        15.279         0.167         0.011         0.077
  HS02004856HS02004862        14.071        27.340         0.284         0.019         0.133
  HS02004852HS02004856         8.064        15.290         0.167         0.011         0.077
  HS02004802HS02004478       102.881       186.882         5.161         0.575         3.054
  HS02004478WS02006287       268.254       498.546         9.362         0.945         5.224
  HS02004817HS02004807        86.884       154.857         4.956         0.568         2.972
  HS02004807HS02004802       103.106       187.233         5.193         0.580         3.075
  YS02001759YS02001757       350.241       639.383         7.001         0.485         3.420
  YS02001762YS02001759       148.081       270.466         3.196         0.225         1.587
  YS02001765YS02001762       148.635       272.079         3.230         0.229         1.607
  YS02001770YS02001767       147.677       271.606         3.015         0.197         1.465
  YS02001774YS02001770       163.908       313.865         3.201         0.209         1.547
  YS02001779YS02001774       163.185       312.405         3.290         0.223         1.609
  YS02001649YS02001757       342.437       608.825         6.894         0.479         3.308
  YS02001767YS02001765       149.283       273.649         3.264         0.232         1.626
  YS02006561YS02001783       935.763      1716.093        19.813         1.486         9.886
  YS02001783YS02001784       935.618      1715.859        19.807         1.485         9.883
  YS02001784YS02001785       942.932      1727.585        20.519         1.574        10.328
  YS02001788YS02001790       943.506      1728.517        20.590         1.584        10.373
  YS02001790YS02001791       944.496      1730.134        20.688         1.596        10.434
  YS02001791YS02001793       944.351      1729.873        20.682         1.595        10.431
  YS02001910YS02001907       330.002       599.003         8.218         0.640         4.245
  YS02001786YS02001788       943.137      1727.932        20.546         1.578        10.345
  YS02001915YS02001910       330.109       599.174         8.175         0.634         4.215
  YS02001918YS02001915       157.245       272.919         4.591         0.428         2.501
  YS02001923YS02001920       136.674       239.828         2.623         0.182         1.272
  YS02001926YS02001923       136.388       239.391         2.586         0.178         1.248
  YS02001929YS02001926       136.171       239.031         2.555         0.174         1.228
  YS02001920YS02001918       156.645       271.775         4.549         0.423         2.475
  YS02001629YS02163301       104.424       185.081         2.189         0.141         1.021
  YS02001619YS02001622       146.407       262.954         3.031         0.197         1.414
  YS02001622YS02001625       145.245       261.117         3.003         0.195         1.401
  YS02001625YS02001629       105.517       186.891         2.213         0.143         1.031
  YS02163301YS02001633       104.140       184.602         2.182         0.141         1.018
  YS02163601YS02164001       362.969       647.899         7.134         0.504         3.412
  YS02164001YS02001641       362.484       647.083         7.115         0.502         3.401
  YS02001641YS02001644       362.710       647.391         7.113         0.501         3.400
  YS02001647YS02001649       375.417       673.563         7.481         0.520         3.577
  YS02006553YS02006556       657.290      1199.754        14.217         1.093         7.169
  YS02006556YS02006558       657.229      1199.628        14.184         1.088         7.147
  YSB6556YSB1171              21.957        42.205         0.451         0.038         0.229
  YS02001907YS02006553       657.399      1199.975        14.231         1.095         7.178
  YS02006558YS02006561       935.760      1716.074        19.813         1.486         9.886
  YS02001633YS02163601       363.652       648.954         7.114         0.500         3.396
  YS02001644YS02001647       381.717       684.936         7.584         0.527         3.625
  YS02001745YS02001748       208.957       384.671         4.625         0.317         2.296
  YS02001748YS02001751       208.046       382.669         4.753         0.337         2.385
  YS02001751YS02001754       207.092       381.087         4.742         0.337         2.382
  YS02001754YS02001757       207.855       382.234         4.906         0.360         2.488
  YS02001882YS02001884         2.925         5.049         0.059         0.005         0.029
  YS02001884YS02001887         6.849        12.111         0.134         0.010         0.067
  YS02001890YS02001895       389.433       720.586         7.189         0.539         3.508
  YS02001895YS02001898       389.253       720.335         7.182         0.539         3.504
  YS02001898YS02001901       389.035       719.968         7.177         0.538         3.502
  YS02001901YS02001904       388.885       719.754         7.184         0.540         3.507
  YS02001904YS02001907       389.097       720.073         7.237         0.547         3.541
  YS02001887YS02001890       390.233       721.782         7.243         0.546         3.541
  YS02001652YS02001649       151.571       277.469         3.089         0.222         1.448
  YS02001655YS02001652       152.046       278.242         3.102         0.223         1.455
  YS02001658YS02001655       151.451       277.306         3.013         0.212         1.398
  YS02001661YS02001658       154.794       283.339         3.080         0.216         1.429
  YS02001664YS02001661       176.240       319.098         3.555         0.248         1.646
  YSB1154YSB6556              21.536        41.533         0.402         0.032         0.199
  YSB1174YSB1171              14.653        28.288         0.298         0.024         0.149
  YSB1171HS02004479           38.106        72.912         0.887         0.079         0.465
  HS02004881HS02006253        42.380        82.752         0.931         0.068         0.458
  YS02001793JiankangQianchi       944.604      1730.303        20.685         1.596        10.432
  YS02001757CaochengTiaoxuchi       637.338      1149.156        13.353         0.952         6.549
  WSF200WS02003060           871.465      1602.461        22.640         1.961        11.889
  1                         1698.564      2954.018        94.724        10.853        56.591
  CC-Pump-1                  204.174       370.526         4.239         0.303         2.078
  CC-Pump-2                  147.954       269.980         3.053         0.219         1.496
  JK-Pump-1                  253.359       468.711         5.261         0.393         2.617
  JK-Pump-2                  439.779       809.871         9.176         0.682         4.562
  XR-Pump-1                  170.734       280.137        14.518         1.784         8.984
  XR-Pump-2                  186.289       306.161        15.724         1.931         9.726
  XR-Pump-3                  185.220       305.014        15.477         1.898         9.565
  XR-Pump-4                  142.141       234.485        11.769         1.441         7.267
  

  Analysis begun on:  Wed Jun  2 20:39:08 2021
  Analysis ended on:  Wed Jun  2 20:39:12 2021
  Total elapsed time: 00:00:04