
  EPA STORM WATER MANAGEMENT MODEL - VERSION 5.1 (Build 5.3.0.dev0)
  --------------------------------------------------------------

  WARNING 04: minimum elevation drop used for Conduit WS02004404WS02004405
  WARNING 03: negative offset ignored for Link YS02001904YS02001907
  
  *********************************************************
  NOTE: The summary statistics displayed in this report are
  based on results found at every computational time step,  
  not just on results from each reporting time step.
  *********************************************************
  
  ****************
  Analysis Options
  ****************
  Flow Units ............... LPS
  Process Models:
    Rainfall/Runoff ........ YES
    RDII ................... NO
    Snowmelt ............... NO
    Groundwater ............ NO
    Flow Routing ........... YES
    Ponding Allowed ........ NO
    Water Quality .......... YES
  Infiltration Method ...... HORTON
  Flow Routing Method ...... DYNWAVE
  Surcharge Method ......... EXTRAN
  Starting Date ............ 08/28/2015 08:00:00
  Ending Date .............. 08/28/2015 15:50:00
  Antecedent Dry Days ...... 8.0
  Report Time Step ......... 00:01:00
  Wet Time Step ............ 00:01:00
  Dry Time Step ............ 00:01:00
  Routing Time Step ........ 5.00 sec
  Variable Time Step ....... YES
  Maximum Trials ........... 8
  Number of Threads ........ 4
  Head Tolerance ........... 0.001500 m
  
  
  **************************        Volume         Depth
  Runoff Quantity Continuity     hectare-m            mm
  **************************     ---------       -------
  Total Precipitation ......         6.144        13.452
  Evaporation Loss .........         0.000         0.000
  Infiltration Loss ........         1.064         2.328
  Surface Runoff ...........         4.147         9.079
  Final Storage ............         0.935         2.047
  Continuity Error (%) .....        -0.020
  
  
  **************************           COD            SS            TN            TP         NH4-N
  Runoff Quality Continuity             kg            kg            kg            kg            kg
  **************************    ----------    ----------    ----------    ----------    ----------
  Initial Buildup ..........     41378.656     70582.865      1804.177       168.684      1032.807
  Surface Buildup ..........        21.799        40.924         2.400         0.218         1.395
  Wet Deposition ...........         0.000         0.000         0.000         0.000         0.000
  Sweeping Removal .........         0.000         0.000         0.000         0.000         0.000
  Infiltration Loss ........        97.311       184.943         1.849         0.130         0.881
  BMP Removal ..............         0.000         0.000         0.000         0.000         0.000
  Surface Runoff ...........      3769.819      7064.251        72.781         4.964        34.599
  Remaining Buildup ........     37531.916     63371.884      1731.919       163.806       998.709
  Continuity Error (%) .....         0.003         0.004         0.002         0.001         0.001
  
  
  **************************        Volume        Volume
  Flow Routing Continuity        hectare-m      10^6 ltr
  **************************     ---------     ---------
  Dry Weather Inflow .......         0.616         6.165
  Wet Weather Inflow .......         4.145        41.453
  Groundwater Inflow .......         0.000         0.000
  RDII Inflow ..............         0.000         0.000
  External Inflow ..........         0.102         1.024
  External Outflow .........         1.674        16.735
  Flooding Loss ............         2.692        26.920
  Evaporation Loss .........         0.000         0.000
  Exfiltration Loss ........         0.000         0.000
  Initial Stored Volume ....         0.076         0.761
  Final Stored Volume ......         0.650         6.501
  Continuity Error (%) .....        -1.526
  
  
  **************************           COD            SS            TN            TP         NH4-N
  Quality Routing Continuity            kg            kg            kg            kg            kg
  **************************    ----------    ----------    ----------    ----------    ----------
  Dry Weather Inflow .......      1541.201      2465.922       147.955        18.494        92.472
  Wet Weather Inflow .......      3769.258      7063.383        72.768         4.964        34.593
  Groundwater Inflow .......         0.000         0.000         0.000         0.000         0.000
  RDII Inflow ..............         0.000         0.000         0.000         0.000         0.000
  External Inflow ..........       183.418       293.469        17.608         2.201        11.005
  External Outflow .........      1888.329      3323.020       101.758        11.578        60.563
  Flooding Loss ............      2941.150      5360.553       108.486        11.142        61.390
  Exfiltration Loss ........         0.000         0.000         0.000         0.000         0.000
  Mass Reacted .............         0.000         0.000         0.000         0.000         0.000
  Initial Stored Mass ......         0.000         0.000         0.000         0.000         0.000
  Final Stored Mass ........       557.505       962.255        25.091         2.687        14.553
  Continuity Error (%) .....         1.946         1.801         1.257         0.983         1.132
  
  
  *************************
  Highest Continuity Errors
  *************************
  Node HS02004842 (13.41%)
  Node YS02001884 (11.04%)
  Node JK-storage (-7.18%)
  Node HS02004817 (2.53%)
  Node YSB1171 (2.46%)
  
  
  ***************************
  Time-Step Critical Elements
  ***************************
  Link WS02006252WS02006251 (74.70%)
  Link WS02006280WS02006229 (6.25%)
  Link YS02001793JiankangQianchi (3.64%)
  Link WS02006238WS02006235 (3.28%)
  Link YS02006556YS02006558 (1.42%)
  
  
  ********************************
  Highest Flow Instability Indexes
  ********************************
  Link YS02001629YS02163301 (36)
  Link YS02163601YS02164001 (36)
  Link YS02163301YS02001633 (35)
  Link WS02006113WS02006111 (35)
  Link YS02001619YS02001622 (34)
  
  
  *************************
  Routing Time Step Summary
  *************************
  Minimum Time Step           :     0.06 sec
  Average Time Step           :     1.06 sec
  Maximum Time Step           :     5.00 sec
  Percent in Steady State     :    -0.00
  Average Iterations per Step :     4.39
  Percent Not Converging      :    20.85
  
  
  ***************************
  Subcatchment Runoff Summary
  ***************************
  
  ------------------------------------------------------------------------------------------------------------------------------
                            Total      Total      Total      Total     Imperv       Perv      Total       Total     Peak  Runoff
                           Precip      Runon       Evap      Infil     Runoff     Runoff     Runoff      Runoff   Runoff   Coeff
  Subcatchment                 mm         mm         mm         mm         mm         mm         mm    10^6 ltr      LPS
  ------------------------------------------------------------------------------------------------------------------------------
  sub0                      13.45       0.00       0.00       0.63      12.47       0.31      12.77        0.01     3.75   0.950
  sub1                      13.45       0.00       0.00       1.12      11.88       0.36      12.24        0.08    25.66   0.910
  sub2                      13.45       0.00       0.00       4.44       8.39       0.53       8.92        0.08    25.29   0.663
  sub3                      13.45       0.00       0.00       4.56       8.35       0.42       8.77        0.20    55.75   0.652
  sub4                      13.45       0.00       0.00       1.22      11.71       0.26      11.97        0.25    65.52   0.890
  sub5                      13.45       0.00       0.00       0.68      12.41       0.26      12.67        0.14    44.76   0.942
  sub7                      13.45       0.00       0.00       0.86      12.18       0.35      12.53        0.04    14.26   0.931
  sub8                      13.45       0.00       0.00       0.87      12.17       0.34      12.50        0.08    26.26   0.930
  sub9                      13.45       0.00       0.00       0.88      12.17       0.33      12.50        0.06    19.64   0.929
  sub10                     13.45       0.00       0.00       0.78      12.29       0.29      12.58        0.14    44.00   0.935
  sub11                     13.45       0.00       0.00       0.77      12.30       0.31      12.61        0.15    48.45   0.938
  sub12                     13.45       0.00       0.00       1.25      11.66       0.50      12.16        0.11    38.10   0.904
  sub14                     13.45       0.00       0.00       0.88      12.16       0.33      12.49        0.12    38.67   0.929
  sub15                     13.45       0.00       0.00       3.37       9.35       0.66      10.01        0.17    57.01   0.744
  sub16                     13.45       0.00       0.00       3.56       8.97       0.88       9.85        0.10    37.63   0.732
  sub17                     13.45       0.00       0.00       3.47       9.10       0.84       9.94        0.09    30.67   0.739
  sub22                     13.45       0.00       0.00       4.98       7.63       0.81       8.43        0.53   184.54   0.627
  sub23                     13.45       0.00       0.00       4.17       8.43       0.81       9.24        0.44   154.22   0.687
  sub60                     13.45       0.00       0.00       1.53       9.85       0.09       9.93        3.01   438.14   0.738
  sub61                     13.45       0.00       0.00       2.16       9.95       0.12      10.07        3.11   536.45   0.749
  sub62                     13.45       0.00       0.00       0.98      10.84       0.10      10.94        3.36   552.35   0.813
  sub63                     13.45       0.00       0.00       3.77       8.69       0.14       8.83        2.67   492.63   0.656
  sub64                     13.45       0.00       0.00       1.93       9.45       0.09       9.54        2.90   416.72   0.709
  sub65                     13.45       0.00       0.00       1.67       9.61       0.08       9.70        2.98   423.09   0.721
  sub66                     13.45       0.00       0.00       3.81       8.10       0.09       8.18        2.51   380.66   0.608
  sub67                     13.45       0.00       0.00       0.95      11.38       0.13      11.51        3.55   679.52   0.856
  sub68                     13.45       0.00       0.00       1.75      10.45       0.13      10.59        3.26   586.26   0.787
  sub69                     13.45       0.00       0.00       1.83      10.79       0.19      10.98        2.57   544.72   0.816
  sub70                     13.45      11.20       0.00       7.51      14.65       0.88      15.52        3.55   494.81   0.630
  sub71                     13.45       0.00       0.00       0.99      10.58       0.09      10.67        2.52   389.24   0.793
  sub72                     13.45       0.00       0.00       0.89       8.56       0.05       8.61        1.75   189.18   0.640
  1                         13.45      15.11       0.00       1.37      16.56       4.63      21.19        4.98   484.42   0.742
  2                         13.45       0.00       0.00       3.02       3.21       1.96       5.17        2.07   340.45   0.384
  
  
  ****************************
  Subcatchment Washoff Summary
  ****************************
  
  ------------------------------------------------------------------------------------------
                                 COD            SS            TN            TP         NH4-N
  Subcatchment                    kg            kg            kg            kg            kg
  ------------------------------------------------------------------------------------------
  sub0                         2.670         5.197         0.046         0.004         0.022
  sub1                        11.241        22.423         0.210         0.015         0.101
  sub2                         6.894        13.384         0.145         0.010         0.067
  sub3                        16.924        32.573         0.350         0.024         0.161
  sub4                        25.772        51.904         0.510         0.031         0.245
  sub5                        25.778        50.682         0.460         0.035         0.223
  sub7                         5.751        11.638         0.108         0.007         0.052
  sub8                         8.581        17.755         0.171         0.010         0.082
  sub9                         7.353        15.005         0.142         0.009         0.068
  sub10                       21.202        42.223         0.389         0.028         0.188
  sub11                       20.657        41.614         0.386         0.026         0.187
  sub12                       17.724        35.094         0.321         0.024         0.155
  sub14                       15.732        31.800         0.298         0.020         0.144
  sub15                       20.231        39.321         0.389         0.028         0.182
  sub16                       13.129        25.518         0.249         0.019         0.117
  sub17                       12.049        23.208         0.222         0.017         0.105
  sub22                       62.582       119.432         1.186         0.090         0.554
  sub23                       36.683        72.439         0.776         0.051         0.357
  sub60                      243.520       456.962         4.842         0.298         2.321
  sub61                      302.151       564.434         5.627         0.386         2.710
  sub62                      313.722       596.076         6.119         0.388         2.938
  sub63                      223.275       410.850         4.468         0.314         2.075
  sub64                      305.877       553.773         5.626         0.410         2.687
  sub65                      313.037       569.066         5.795         0.415         2.772
  sub66                      176.068       321.340         3.608         0.236         1.687
  sub67                      466.222       877.505         8.365         0.616         4.045
  sub68                      332.037       626.413         6.347         0.429         3.034
  sub69                      298.258       568.561         5.590         0.393         2.674
  sub70                      502.897       962.303        10.037         0.699         4.710
  sub71                      206.745       396.330         4.242         0.246         2.030
  sub72                      164.385       293.107         3.069         0.210         1.476
  1                          349.075       671.606         7.102         0.495         3.297
  2                           42.749        75.577         1.214         0.073         0.518
  ------------------------------------------------------------------------------------------
  System                    4570.974      8595.115        88.408         6.057        41.983
  
  
  ******************
  Node Depth Summary
  ******************
  
  ---------------------------------------------------------------------------------
                                 Average  Maximum  Maximum  Time of Max    Reported
                                   Depth    Depth      HGL   Occurrence   Max Depth
  Node                 Type       Meters   Meters   Meters  days hr:min      Meters
  ---------------------------------------------------------------------------------
  WS02001211           JUNCTION     0.64     0.75     5.59     0  04:41        0.75
  WS02001212           JUNCTION     0.38     0.46     5.53     0  04:42        0.46
  WS02001213           JUNCTION     0.63     0.75     5.51     0  03:11        0.75
  WS02003069           JUNCTION     0.47     0.63     5.21     0  03:12        0.63
  WS02003072           JUNCTION     0.54     0.68     5.05     0  03:13        0.68
  WS02003073           JUNCTION     0.32     0.42     4.49     0  03:13        0.42
  WS02003060           JUNCTION     0.42     0.55     5.49     0  03:12        0.55
  WS02003066           JUNCTION     0.26     0.38     5.94     0  03:04        0.38
  WS02003059           JUNCTION     0.69     0.81     5.50     0  03:12        0.81
  WS02003067           JUNCTION     0.63     0.82     6.14     0  03:03        0.82
  WS02004401           JUNCTION     0.78     1.23     7.23     0  03:02        1.23
  WS02004402           JUNCTION     0.80     1.22     7.18     0  03:02        1.22
  WS02004403           JUNCTION     0.82     1.20     7.13     0  03:02        1.19
  WS02004404           JUNCTION     0.89     1.25     7.10     0  03:01        1.24
  WS02004406           JUNCTION     0.88     1.16     6.99     0  03:02        1.16
  WS02004409           JUNCTION     0.59     0.96     6.73     0  03:03        0.96
  WS02004410           JUNCTION     0.60     0.95     6.67     0  03:03        0.95
  WS02004411           JUNCTION     0.61     0.93     6.61     0  03:03        0.93
  WS02004412           JUNCTION     0.62     0.90     6.54     0  03:03        0.90
  WS02004413           JUNCTION     0.77     1.02     6.49     0  03:03        1.02
  WS02004405           JUNCTION     0.88     1.22     7.07     0  03:01        1.21
  WS02006109           JUNCTION     0.88     1.65     8.27     0  03:02        1.64
  WS02006110           JUNCTION     0.85     1.45     8.03     0  03:02        1.44
  WS02006111           JUNCTION     0.28     0.88     7.59     0  03:02        0.88
  WS02006112           JUNCTION     0.96     1.56     7.44     0  03:02        1.55
  WS02006113           JUNCTION     0.41     0.92     7.82     0  03:02        0.92
  WS02006115           JUNCTION     0.68     1.22     7.36     0  03:02        1.21
  WS02006116           JUNCTION     0.75     1.26     7.30     0  03:02        1.25
  WS02006230           JUNCTION     0.92     1.88     8.62     0  03:02        1.87
  WS02006231           JUNCTION     0.65     1.52     8.64     0  03:02        1.51
  WS02006232           JUNCTION     0.80     1.62     8.66     0  03:02        1.61
  WS02006234           JUNCTION     0.75     1.53     8.68     0  03:02        1.52
  WS02006235           JUNCTION     0.80     1.54     8.70     0  03:02        1.53
  WS02006238           JUNCTION     0.83     1.56     8.71     0  03:02        1.55
  WS02006240           JUNCTION     0.73     1.40     8.70     0  03:02        1.40
  WS02006242           JUNCTION     0.79     1.43     8.70     0  03:02        1.42
  WS02006243           JUNCTION     0.67     1.28     8.70     0  03:01        1.27
  WS02006245           JUNCTION     0.64     1.21     8.70     0  03:03        1.20
  WS02006247           JUNCTION     0.65     1.20     8.70     0  03:02        1.19
  WS02006248           JUNCTION     0.60     1.10     8.69     0  02:56        1.10
  WS02006249           JUNCTION     0.61     1.09     8.69     0  02:14        1.09
  WS02006239           JUNCTION     0.79     1.49     8.70     0  03:02        1.48
  WS02006251           JUNCTION     0.59     1.51     9.18     0  02:14        1.18
  WS02006252           JUNCTION     0.38     1.03     9.27     0  02:14        0.73
  WS02006253           JUNCTION     0.62     1.51     9.16     0  02:14        1.21
  WS02006256           JUNCTION     1.85     2.35     9.28     0  00:00        2.35
  WS02004138           JUNCTION     0.14     0.19     7.44     0  01:40        0.19
  WS02004139           JUNCTION     0.58     0.70     5.61     0  01:40        0.70
  WS02004407           JUNCTION     0.26     0.40     6.71     0  03:03        0.40
  WS02006228           JUNCTION     0.90     1.83     8.48     0  03:02        1.82
  WS02006229           JUNCTION     0.89     1.90     8.59     0  03:02        1.89
  WS02006280           JUNCTION     0.07     0.30     8.57     0  03:05        0.30
  WS02006284           JUNCTION     0.38     0.65     9.04     0  03:02        0.64
  WS02006287           JUNCTION     0.11     0.39     9.34     0  03:02        0.39
  WSF200               JUNCTION     0.26     0.40     5.64     0  03:09        0.40
  HS02004901           JUNCTION     0.13     0.38    10.20     0  03:01        0.37
  HS02004881           JUNCTION     0.01     0.05     9.08     0  03:01        0.05
  HS02004876           JUNCTION     0.05     0.16     9.19     0  03:01        0.16
  HS02004870           JUNCTION     0.02     0.09     9.38     0  03:01        0.09
  HS02004862           JUNCTION     0.02     0.11     9.49     0  03:01        0.11
  HS02004856           JUNCTION     0.08     0.15     9.58     0  03:01        0.15
  HS02004852           JUNCTION     0.01     0.07     9.59     0  03:02        0.07
  HS02004848           JUNCTION     0.01     0.07     9.67     0  03:01        0.07
  HS02004842           JUNCTION     0.34     0.40     9.67     0  03:01        0.40
  HS02004837           JUNCTION     0.03     0.09     9.67     0  03:01        0.09
  HS02004830           JUNCTION     0.04     0.10     9.57     0  03:01        0.10
  HS02004824           JUNCTION     0.03     0.13     9.53     0  03:02        0.13
  HS02004817           JUNCTION     0.45     0.69     9.54     0  03:02        0.69
  HS02004807           JUNCTION     0.13     0.36     9.53     0  03:02        0.36
  HS02004802           JUNCTION     0.17     0.39     9.52     0  03:02        0.39
  HS02004799           JUNCTION     0.13     0.46     9.68     0  03:01        0.46
  HS02004792           JUNCTION     0.04     0.22     9.74     0  03:01        0.21
  HS02004788           JUNCTION     0.03     0.16    10.05     0  03:02        0.16
  HS02004785           JUNCTION     0.05     0.25    10.15     0  03:02        0.25
  HS02004777           JUNCTION     0.15     0.39    10.19     0  03:01        0.39
  HS02004770           JUNCTION     0.12     0.37    10.20     0  03:01        0.36
  HS02004480           JUNCTION     0.09     0.38     9.62     0  03:01        0.38
  HS02004479           JUNCTION     0.13     0.42     9.62     0  03:01        0.42
  HS02004478           JUNCTION     0.07     0.28     9.50     0  03:01        0.28
  YS02001745           JUNCTION     0.70     0.93     8.44     0  03:01        0.92
  YS02001748           JUNCTION     1.09     1.49     8.57     0  02:38        1.35
  YS02001751           JUNCTION     1.28     1.81     8.69     0  02:29        1.54
  YS02001754           JUNCTION     1.53     1.85     8.46     0  02:29        1.81
  YS02001762           JUNCTION     1.73     2.04     8.44     0  02:55        2.02
  YS02001765           JUNCTION     1.69     1.99     8.44     0  02:55        1.96
  YS02001767           JUNCTION     1.65     1.94     8.43     0  02:57        1.92
  YS02001770           JUNCTION     1.64     1.92     8.41     0  03:00        1.91
  YS02001774           JUNCTION     1.71     1.98     8.40     0  02:57        1.97
  YS02001779           JUNCTION     1.46     1.68     8.37     0  02:34        1.68
  YS02001882           JUNCTION     0.56     1.63     8.35     0  03:01        1.63
  YS02001884           JUNCTION     0.66     1.74     8.35     0  03:00        1.72
  YS02001759           JUNCTION     1.77     2.08     8.45     0  02:55        2.06
  YS02001887           JUNCTION     0.74     1.81     8.35     0  03:00        1.81
  YS02001890           JUNCTION     0.77     1.81     8.32     0  02:47        1.81
  YS02001898           JUNCTION     0.53     1.57     8.30     0  02:57        1.56
  YS02001901           JUNCTION     0.65     1.68     8.29     0  02:53        1.67
  YS02001904           JUNCTION     0.63     1.64     8.27     0  02:54        1.63
  YS02001907           JUNCTION     0.96     1.96     8.25     0  02:47        1.96
  YS02001910           JUNCTION     0.75     1.80     8.30     0  02:47        1.78
  YS02001915           JUNCTION     0.55     1.61     8.33     0  02:48        1.61
  YS02001918           JUNCTION     0.29     1.32     8.39     0  02:47        1.31
  YS02001619           JUNCTION     1.24     1.61     8.54     0  02:32        1.48
  YS02001629           JUNCTION     1.60     1.85     8.40     0  02:33        1.84
  YS02001641           JUNCTION     1.70     1.94     8.38     0  02:39        1.93
  YS02001644           JUNCTION     1.70     1.92     8.35     0  02:39        1.92
  YS02001652           JUNCTION     1.55     2.16     8.76     0  02:29        1.91
  YS02001655           JUNCTION     1.31     2.20     9.05     0  02:28        1.75
  YS02001920           JUNCTION     0.39     1.40     8.41     0  02:48        1.40
  YS02001923           JUNCTION     0.23     1.17     8.43     0  02:47        1.17
  YS02001926           JUNCTION     0.28     0.99     8.43     0  02:48        0.96
  YS02001929           JUNCTION     0.16     0.74     8.44     0  02:47        0.73
  YS02001658           JUNCTION     1.04     2.30     9.44     0  02:32        1.55
  YS02001661           JUNCTION     0.81     2.04     9.44     0  02:55        1.36
  YS02001664           JUNCTION     0.36     0.58     8.50     0  02:48        0.57
  YS02001622           JUNCTION     1.26     1.62     8.52     0  02:32        1.50
  YS02001633           JUNCTION     1.69     1.96     8.41     0  02:39        1.94
  YS02001649           JUNCTION     1.74     2.05     8.44     0  02:46        2.05
  YS02001757           JUNCTION     1.87     2.17     8.43     0  04:07        2.16
  YS02001895           JUNCTION     0.53     1.57     8.31     0  02:56        1.56
  YS02001625           JUNCTION     1.55     1.78     8.38     0  02:33        1.78
  YS02163301           JUNCTION     1.63     1.90     8.41     0  02:34        1.88
  YS02163601           JUNCTION     1.74     2.01     8.41     0  02:39        1.98
  YS02164001           JUNCTION     1.68     1.94     8.40     0  02:39        1.91
  YS02001647           JUNCTION     1.53     1.81     8.42     0  02:46        1.80
  YSB1154              JUNCTION     0.27     0.57     9.62     0  03:01        0.57
  YSB6556              JUNCTION     0.16     0.45     9.62     0  03:02        0.45
  YSB1174              JUNCTION     0.22     0.52     9.62     0  03:01        0.51
  YSB1171              JUNCTION     0.42     0.72     9.62     0  03:01        0.72
  YS02006553           JUNCTION     0.96     1.97     8.26     0  03:00        1.96
  YS02006561           JUNCTION     0.32     1.09     7.75     0  02:59        1.09
  YS02006556           JUNCTION     0.93     1.94     8.25     0  03:00        1.93
  YS02006558           JUNCTION     0.97     1.98     8.24     0  03:01        1.97
  YS02001783           JUNCTION     0.55     2.40     8.54     0  02:28        1.47
  YS02001784           JUNCTION     0.57     2.23     8.30     0  02:28        1.41
  YS02001786           JUNCTION     0.51     1.66     7.69     0  02:28        1.26
  YS02001788           JUNCTION     0.45     1.96     7.94     0  02:28        1.13
  YS02001790           JUNCTION     0.57     1.96     7.60     0  02:27        1.29
  YS02001791           JUNCTION     0.54     2.72     8.19     0  02:27        1.27
  YS02001793           JUNCTION     0.74     3.60     8.43     0  02:26        1.80
  WSC                  OUTFALL      0.32     0.42     1.09     0  03:13        0.42
  JK-storage           STORAGE      2.85     5.80     6.60     0  02:28        5.80
  CC-storage           STORAGE      1.09     1.40     8.40     0  03:32        1.40
  XR-storage           STORAGE      7.56     7.72     5.72     0  02:04        7.72
  
  
  *******************
  Node Inflow Summary
  *******************
  
  -------------------------------------------------------------------------------------------------
                                  Maximum  Maximum                  Lateral       Total        Flow
                                  Lateral    Total  Time of Max      Inflow      Inflow     Balance
                                   Inflow   Inflow   Occurrence      Volume      Volume       Error
  Node                 Type           LPS      LPS  days hr:min    10^6 ltr    10^6 ltr     Percent
  -------------------------------------------------------------------------------------------------
  WS02001211           JUNCTION      7.35   381.49     0  01:40       0.207        5.57       0.541
  WS02001212           JUNCTION      0.00   377.59     0  01:41           0        5.54       0.289
  WS02001213           JUNCTION      0.00   376.67     0  01:41           0        5.52       0.407
  WS02003069           JUNCTION      0.32  1067.35     0  03:12     0.00902        16.8       0.170
  WS02003072           JUNCTION      0.00  1067.23     0  03:12           0        16.8       0.212
  WS02003073           JUNCTION      1.82  1069.05     0  03:13      0.0514        16.8       0.240
  WS02003060           JUNCTION     16.53  1067.02     0  03:12       0.466        16.8       0.162
  WS02003066           JUNCTION      0.00   938.66     0  03:04           0        10.9       0.043
  WS02003059           JUNCTION      0.00   375.12     0  01:41           0         5.5       0.635
  WS02003067           JUNCTION      0.00   938.17     0  03:04           0        10.9       0.089
  WS02004401           JUNCTION      0.00   939.77     0  03:02           0        11.1       0.196
  WS02004402           JUNCTION      0.00   940.62     0  03:02           0        11.1       0.185
  WS02004403           JUNCTION      0.00   940.03     0  03:02           0        11.1       0.167
  WS02004404           JUNCTION      0.16   940.43     0  03:02     0.00457        11.1       0.125
  WS02004406           JUNCTION      0.00   940.34     0  03:02           0          11       0.306
  WS02004409           JUNCTION      0.00   939.63     0  03:03           0          11       0.157
  WS02004410           JUNCTION      0.00   938.45     0  03:03           0          11       0.177
  WS02004411           JUNCTION      0.00   937.99     0  03:03           0          11       0.180
  WS02004412           JUNCTION      0.00   937.57     0  03:03           0        10.9       0.194
  WS02004413           JUNCTION      0.00   938.07     0  03:04           0        10.9       0.286
  WS02004405           JUNCTION      0.04   940.66     0  03:02     0.00107        11.1       0.191
  WS02006109           JUNCTION      1.23   915.58     0  03:02      0.0347        11.2       0.197
  WS02006110           JUNCTION      0.00   915.61     0  03:03           0        11.2       0.181
  WS02006111           JUNCTION      0.00   915.96     0  03:03           0        11.1       0.037
  WS02006112           JUNCTION     30.67   939.39     0  03:02      0.0853        11.2       0.253
  WS02006113           JUNCTION      0.00   915.77     0  03:03           0        11.1       0.096
  WS02006115           JUNCTION      0.00   939.55     0  03:02           0        11.2       0.186
  WS02006116           JUNCTION      0.00   940.01     0  03:02           0        11.2       0.180
  WS02006230           JUNCTION     10.28   533.89     0  07:22        0.29        8.75       0.149
  WS02006231           JUNCTION      0.00   523.02     0  07:10           0        8.48       0.140
  WS02006232           JUNCTION      0.00   523.02     0  07:10           0        8.49       0.207
  WS02006234           JUNCTION      0.00   523.23     0  07:17           0         8.5       0.096
  WS02006235           JUNCTION      0.00   523.85     0  07:11           0        8.54       0.141
  WS02006238           JUNCTION      0.00   417.46     0  07:20           0        4.87       0.159
  WS02006240           JUNCTION      0.00   416.13     0  07:20           0        4.86       0.257
  WS02006242           JUNCTION      0.00   416.06     0  07:20           0        4.86       0.310
  WS02006243           JUNCTION      0.00   416.26     0  07:20           0        4.86       0.145
  WS02006245           JUNCTION      0.00   415.94     0  07:20           0        4.87       0.223
  WS02006247           JUNCTION      0.00   416.32     0  07:20           0        4.88       0.141
  WS02006248           JUNCTION      0.00   417.14     0  07:20           0        4.88       0.073
  WS02006249           JUNCTION      0.00   453.78     0  02:20           0        5.29       0.185
  WS02006239           JUNCTION      0.00   417.04     0  07:20           0        4.86       0.194
  WS02006251           JUNCTION      0.08   453.39     0  02:20     0.00217        5.37       0.161
  WS02006252           JUNCTION      0.00   400.00     0  06:00           0        4.83       0.012
  WS02006253           JUNCTION      3.75   143.72     0  03:01      0.0103        0.54       0.667
  WS02006256           JUNCTION      0.00   983.00     0  03:50           0         8.2      -0.015
  WS02004138           JUNCTION      0.00   379.99     0  04:40           0        5.39       0.080
  WS02004139           JUNCTION      0.32   379.59     0  01:40     0.00905        5.39       0.622
  WS02004407           JUNCTION      0.00   939.84     0  03:03           0          11       0.071
  WS02006228           JUNCTION      0.00   914.15     0  03:02           0        11.2       0.152
  WS02006229           JUNCTION      0.00   916.78     0  03:02           0        11.2       0.106
  WS02006280           JUNCTION      0.00   680.23     0  03:02           0        2.43       0.006
  WS02006284           JUNCTION      0.10   679.09     0  03:02      0.0027        2.43       0.045
  WS02006287           JUNCTION      0.00   677.72     0  03:02           0        2.43       0.032
  WSF200               JUNCTION      0.00   938.63     0  03:04           0        10.9       0.043
  HS02004901           JUNCTION     37.63    37.63     0  03:01       0.103       0.103       1.741
  HS02004881           JUNCTION     14.26   140.55     0  03:01      0.0422       0.463       0.069
  HS02004876           JUNCTION     25.66   127.66     0  03:01      0.0814       0.422       0.130
  HS02004870           JUNCTION     26.26   103.58     0  03:01      0.0799       0.341       0.035
  HS02004862           JUNCTION     25.49    79.37     0  03:01      0.0888       0.261       0.068
  HS02004856           JUNCTION     19.64    55.40     0  03:01      0.0601       0.173       0.840
  HS02004852           JUNCTION      0.00    37.85     0  03:01           0       0.113       0.053
  HS02004848           JUNCTION     55.75    55.75     0  03:01       0.197       0.197       0.028
  HS02004842           JUNCTION      0.00    16.84     0  03:01           0       0.097      15.489
  HS02004837           JUNCTION     50.35    65.70     0  03:01       0.318       0.402       0.205
  HS02004830           JUNCTION      0.15    64.80     0  03:01     0.00423       0.392       0.316
  HS02004824           JUNCTION     65.57   128.42     0  03:01       0.251       0.642       0.086
  HS02004817           JUNCTION      0.60   124.47     0  03:01      0.0169       0.658       2.599
  HS02004807           JUNCTION     48.45   165.79     0  03:01       0.147       0.788       0.555
  HS02004802           JUNCTION      0.00   165.31     0  03:04           0       0.786       0.508
  HS02004799           JUNCTION     38.67   446.10     0  03:01       0.119        1.42       0.191
  HS02004792           JUNCTION    184.82   411.75     0  03:01        0.54         1.3       0.033
  HS02004788           JUNCTION     58.68   233.42     0  03:02       0.219       0.758       0.053
  HS02004785           JUNCTION      0.15   182.22     0  03:01     0.00423       0.541       0.094
  HS02004777           JUNCTION      0.03   185.03     0  03:01    0.000846       0.541       0.972
  HS02004770           JUNCTION    154.22   188.93     0  03:01       0.441       0.542       0.578
  HS02004480           JUNCTION      0.00   517.27     0  03:01           0        1.66       0.069
  HS02004479           JUNCTION      0.00    75.44     0  03:02           0       0.258       0.286
  HS02004478           JUNCTION      0.00   677.12     0  03:02           0        2.43       0.011
  YS02001745           JUNCTION    438.14   438.14     0  03:01        3.01        3.01       0.360
  YS02001748           JUNCTION      0.04   477.48     0  02:37     0.00127           3       0.748
  YS02001751           JUNCTION      0.01   443.79     0  03:01     0.00031        2.98       0.811
  YS02001754           JUNCTION      0.26   444.28     0  03:01     0.00733        2.96       0.848
  YS02001762           JUNCTION      0.00   354.79     0  02:47           0        1.89       1.146
  YS02001765           JUNCTION      0.00   355.12     0  02:47           0        1.89       1.314
  YS02001767           JUNCTION      0.54   354.76     0  02:47      0.0151        1.92       1.912
  YS02001770           JUNCTION    552.50   572.51     0  03:12        3.37        3.73       0.863
  YS02001774           JUNCTION      0.00   573.12     0  03:12           0        2.16       1.190
  YS02001779           JUNCTION      0.01   573.39     0  03:12    0.000141        2.13       0.738
  YS02001882           JUNCTION      0.00    25.98     0  02:30           0      0.0209      12.838
  YS02001884           JUNCTION      0.00    50.84     0  02:30           0      0.0576      12.412
  YS02001759           JUNCTION    536.49   703.26     0  02:48        3.11        4.61       0.501
  YS02001887           JUNCTION    679.97   679.97     0  03:01        3.57         3.6       0.243
  YS02001890           JUNCTION      0.00   680.51     0  03:01           0        3.55       0.269
  YS02001898           JUNCTION      0.00   517.96     0  03:01           0        3.45       0.098
  YS02001901           JUNCTION      0.00   518.66     0  02:57           0        3.45       0.211
  YS02001904           JUNCTION      0.00   517.81     0  02:57           0        3.44       0.188
  YS02001907           JUNCTION      0.00  1108.92     0  03:01           0        7.77       0.315
  YS02001910           JUNCTION      0.00   591.48     0  03:01           0        4.34       0.278
  YS02001915           JUNCTION    389.26   591.38     0  03:01        2.52        4.36       0.151
  YS02001918           JUNCTION      0.00   279.70     0  02:48           0        1.86       0.115
  YS02001619           JUNCTION    380.66   380.66     0  03:01        2.51        2.51       0.480
  YS02001629           JUNCTION      0.00   209.30     0  02:41           0        1.61       1.818
  YS02001641           JUNCTION      0.00   443.55     0  02:42           0        4.47       0.476
  YS02001644           JUNCTION    416.76  1360.57     0  03:01         2.9        10.5       0.253
  YS02001652           JUNCTION      0.00   510.68     0  03:01           0        2.63       0.901
  YS02001655           JUNCTION      0.15   509.68     0  03:01     0.00434        2.65       0.933
  YS02001920           JUNCTION      2.87   278.94     0  02:48      0.0809        1.86       0.170
  YS02001923           JUNCTION      0.04   275.96     0  02:48     0.00106        1.77       0.056
  YS02001926           JUNCTION      0.05   213.70     0  02:48     0.00147        1.76       0.183
  YS02001929           JUNCTION    189.18   189.18     0  03:01        1.75        1.75       0.035
  YS02001658           JUNCTION      0.00   652.27     0  02:33           0        2.69       0.833
  YS02001661           JUNCTION      0.00   711.91     0  02:48           0        3.09      -0.169
  YS02001664           JUNCTION    492.63   492.63     0  03:01        2.67        3.08       0.197
  YS02001622           JUNCTION      0.00   381.44     0  03:01           0         2.5       1.292
  YS02001633           JUNCTION    423.29   443.89     0  02:42        2.99        4.54       0.715
  YS02001649           JUNCTION      0.00   942.76     0  02:43           0        6.26       0.601
  YS02001757           JUNCTION      0.00  1822.40     0  02:44           0        10.2       0.907
  YS02001895           JUNCTION      0.00   518.14     0  03:01           0        3.45       0.158
  YS02001625           JUNCTION      0.00   407.79     0  03:01           0        2.47       1.588
  YS02163301           JUNCTION      0.00   217.20     0  02:35           0        1.59       1.542
  YS02163601           JUNCTION      0.11   443.91     0  02:42      0.0031         4.5       0.677
  YS02164001           JUNCTION      0.00   443.75     0  02:42           0        4.47       0.457
  YS02001647           JUNCTION      0.00   675.70     0  02:42           0        5.25       0.547
  YSB1154              JUNCTION     44.76    44.76     0  03:01       0.144       0.144       1.017
  YSB6556              JUNCTION      0.00    43.29     0  03:01           0       0.145       0.869
  YSB1174              JUNCTION     38.10    38.10     0  03:01       0.106       0.107       1.222
  YSB1171              JUNCTION      0.00    76.93     0  03:01           0       0.257       2.525
  YS02006553           JUNCTION      0.00   683.47     0  03:52           0        6.66       0.241
  YS02006561           JUNCTION      0.00   970.70     0  03:01           0        9.88       0.009
  YS02006556           JUNCTION      0.00   683.43     0  03:52           0        6.66       0.170
  YS02006558           JUNCTION    587.14   971.84     0  03:01        3.28        9.91       0.054
  YS02001783           JUNCTION      0.00   970.85     0  03:00           0        9.88       0.024
  YS02001784           JUNCTION      1.06   971.77     0  03:00      0.0299        9.91       0.039
  YS02001786           JUNCTION      0.06   972.09     0  03:01     0.00159        9.91       0.035
  YS02001788           JUNCTION      0.07   971.98     0  03:00       0.002        9.91       0.027
  YS02001790           JUNCTION      0.15   972.43     0  03:01     0.00437        9.91       0.021
  YS02001791           JUNCTION      0.00   972.11     0  03:01           0        9.91       0.013
  YS02001793           JUNCTION      0.00   972.78     0  03:01           0        9.91       0.001
  WSC                  OUTFALL       0.00  1069.03     0  03:13           0        16.7       0.000
  JK-storage           STORAGE       0.00   972.92     0  03:01           0        10.1      -6.697
  CC-storage           STORAGE       0.00  1822.07     0  02:44           0        8.55       0.750
  XR-storage           STORAGE    1024.87  1024.87     0  03:01        12.7        13.3      -0.001
  
  
  **********************
  Node Surcharge Summary
  **********************
  
  Surcharging occurs when water rises above the top of the highest conduit.
  ---------------------------------------------------------------------
                                               Max. Height   Min. Depth
                                   Hours       Above Crown    Below Rim
  Node                 Type      Surcharged         Meters       Meters
  ---------------------------------------------------------------------
  WS02004401           JUNCTION        0.86          0.235        1.425
  WS02004402           JUNCTION        0.92          0.224        1.516
  WS02004403           JUNCTION        0.94          0.199        1.831
  WS02004404           JUNCTION        1.27          0.247        2.533
  WS02004406           JUNCTION        1.22          0.163        2.287
  WS02004413           JUNCTION        0.19          0.023        2.177
  WS02004405           JUNCTION        1.25          0.218        2.582
  WS02006109           JUNCTION        4.48          0.835        0.985
  WS02006110           JUNCTION        2.29          0.540        1.310
  WS02006111           JUNCTION        0.13          0.074        1.796
  WS02006112           JUNCTION        2.91          0.561        1.119
  WS02006113           JUNCTION        0.15          0.123        1.807
  WS02006115           JUNCTION        0.65          0.207        2.043
  WS02006116           JUNCTION        0.67          0.203        2.087
  WS02006230           JUNCTION        2.03          0.800        0.770
  WS02006231           JUNCTION        2.67          0.809        0.721
  WS02006232           JUNCTION        4.48          0.921        0.559
  WS02006234           JUNCTION        3.89          0.806        0.434
  WS02006235           JUNCTION        4.13          0.830        0.460
  WS02006238           JUNCTION        4.20          0.841        0.589
  WS02006240           JUNCTION        3.65          0.693        0.697
  WS02006242           JUNCTION        3.77          0.698        0.122
  WS02006243           JUNCTION        3.30          0.565        0.205
  WS02006245           JUNCTION        3.08          0.502        0.348
  WS02006247           JUNCTION        3.10          0.486        0.274
  WS02006248           JUNCTION        2.66          0.380        0.000
  WS02006249           JUNCTION        2.81          0.390        0.000
  WS02006239           JUNCTION        3.85          0.749        0.541
  WS02006251           JUNCTION        1.38          0.479        0.701
  WS02006252           JUNCTION        3.07          0.629        0.471
  WS02006253           JUNCTION        1.44          0.472        2.008
  WS02006256           JUNCTION        7.33          2.050        0.000
  WS02006228           JUNCTION        4.44          0.999        1.201
  YS02001748           JUNCTION        5.17          0.414        0.776
  YS02001751           JUNCTION        5.32          0.811        0.389
  YS02001754           JUNCTION        5.51          0.800        0.350
  YS02001762           JUNCTION        5.75          1.045        0.105
  YS02001765           JUNCTION        5.71          0.993        0.107
  YS02001767           JUNCTION        5.69          0.943        0.087
  YS02001770           JUNCTION        5.67          0.888        0.032
  YS02001774           JUNCTION        5.74          0.980        0.070
  YS02001779           JUNCTION        5.50          0.680        0.000
  YS02001882           JUNCTION        1.19          0.633        0.197
  YS02001884           JUNCTION        1.22          0.676        0.194
  YS02001759           JUNCTION        5.77          1.083        0.127
  YS02001887           JUNCTION        1.28          0.764        0.186
  YS02001890           JUNCTION        1.31          0.760        0.000
  YS02001898           JUNCTION        1.15          0.535        0.205
  YS02001901           JUNCTION        1.26          0.677        0.193
  YS02001904           JUNCTION        1.24          0.637        0.213
  YS02001907           JUNCTION        1.88          0.950        0.000
  YS02001910           JUNCTION        1.34          0.795        0.305
  YS02001915           JUNCTION        1.18          0.615        0.385
  YS02001918           JUNCTION        0.95          0.322        0.488
  YS02001619           JUNCTION        5.30          0.610        0.000
  YS02001629           JUNCTION        5.32          0.470        0.000
  YS02001641           JUNCTION        5.72          0.945        0.155
  YS02001644           JUNCTION        5.73          0.920        0.000
  YS02001652           JUNCTION        5.58          1.130        0.000
  YS02001655           JUNCTION        5.32          1.200        0.000
  YS02001920           JUNCTION        0.98          0.404        0.736
  YS02001658           JUNCTION        5.20          1.300        0.000
  YS02001661           JUNCTION        0.17          0.969        0.421
  YS02001622           JUNCTION        5.34          0.620        0.000
  YS02001633           JUNCTION        5.70          0.935        0.125
  YS02001649           JUNCTION        5.75          1.050        0.000
  YS02001757           JUNCTION        5.86          1.170        0.040
  YS02001895           JUNCTION        1.17          0.566        0.184
  YS02001625           JUNCTION        5.63          0.780        0.000
  YS02163301           JUNCTION        5.68          0.897        0.133
  YS02163601           JUNCTION        5.75          1.009        0.071
  YS02164001           JUNCTION        5.72          0.939        0.161
  YS02001647           JUNCTION        5.60          0.808        0.092
  YS02006553           JUNCTION        1.96          0.971        0.219
  YS02006561           JUNCTION        1.06          0.292        0.858
  YS02006556           JUNCTION        1.53          0.896        0.454
  YS02006558           JUNCTION        1.50          0.878        0.522
  YS02001783           JUNCTION        1.51          1.600        0.000
  YS02001784           JUNCTION        1.60          1.435        0.055
  YS02001786           JUNCTION        1.46          0.855        0.575
  YS02001788           JUNCTION        1.37          1.161        0.319
  YS02001790           JUNCTION        2.34          1.157        0.000
  YS02001791           JUNCTION        2.39          1.920        0.000
  YS02001793           JUNCTION        2.60          2.600        0.000
  
  
  *********************
  Node Flooding Summary
  *********************
  
  Flooding refers to all water that overflows a node, whether it ponds or not.
  --------------------------------------------------------------------------
                                                             Total   Maximum
                                 Maximum   Time of Max       Flood    Ponded
                        Hours       Rate    Occurrence      Volume     Depth
  Node                 Flooded       LPS   days hr:min    10^6 ltr    Meters
  --------------------------------------------------------------------------
  WS02006248              0.08     15.32      0  03:03       0.002     0.000
  WS02006249              1.31    258.50      0  03:02       0.401     0.000
  WS02006256              4.01    977.55      0  00:00       4.490     0.000
  YS02001779              2.72    573.37      0  03:12       2.108     0.000
  YS02001890              0.34    164.21      0  03:01       0.085     0.000
  YS02001907              0.81    722.91      0  03:01       1.095     0.000
  YS02001619              0.01     20.73      0  02:33       0.000     0.000
  YS02001629              0.01     34.09      0  02:34       0.000     0.000
  YS02001644              4.23   1359.72      0  03:01       8.344     0.000
  YS02001652              0.01     64.53      0  02:30       0.000     0.000
  YS02001655              0.01    252.03      0  02:30       0.001     0.000
  YS02001658              0.01    373.89      0  02:33       0.001     0.000
  YS02001622              0.01     45.14      0  02:34       0.000     0.000
  YS02001649              0.03     32.22      0  02:55       0.001     0.000
  YS02001625              1.37    407.72      0  03:01       0.838     0.000
  YS02001783              0.01     79.83      0  02:28       0.000     0.000
  YS02001790              0.01    253.22      0  02:27       0.000     0.000
  YS02001791              0.01    233.82      0  02:27       0.000     0.000
  YS02001793              0.01    347.80      0  02:26       0.000     0.000
  JK-storage              1.93    930.01      0  03:40       2.579     0.000
  XR-storage              5.75   1005.66      0  03:01       6.972     0.000
  
  
  **********************
  Storage Volume Summary
  **********************
  
  --------------------------------------------------------------------------------------------------
                         Average     Avg  Evap Exfil       Maximum     Max    Time of Max    Maximum
                          Volume    Pcnt  Pcnt  Pcnt        Volume    Pcnt     Occurrence    Outflow
  Storage Unit           1000 m3    Full  Loss  Loss       1000 m3    Full    days hr:min        LPS
  --------------------------------------------------------------------------------------------------
  JK-storage               0.143      49     0     0         0.291     100       0  02:28     983.00
  CC-storage               3.033      19     0     0         3.907      25       0  03:32     400.00
  XR-storage               0.907      98     0     0         0.926     100       0  02:04     379.99
  
  
  ***********************
  Outfall Loading Summary
  ***********************
  
  ---------------------------------------------------------------------------------------------------------------------------------
                         Flow       Avg       Max       Total         Total         Total         Total         Total         Total
                         Freq      Flow      Flow      Volume           COD            SS            TN            TP         NH4-N
  Outfall Node           Pcnt       LPS       LPS    10^6 ltr            kg            kg            kg            kg            kg
  ---------------------------------------------------------------------------------------------------------------------------------
  WSC                   99.99    666.80   1069.03      16.735      1888.471      3323.260       101.769        11.580        60.571
  ---------------------------------------------------------------------------------------------------------------------------------
  System                99.99    666.80   1069.03      16.735      1888.471      3323.260       101.769        11.580        60.571
  
  
  ********************
  Link Flow Summary
  ********************
  
  -----------------------------------------------------------------------------
                                 Maximum  Time of Max   Maximum    Max/    Max/
                                  |Flow|   Occurrence   |Veloc|    Full    Full
  Link                 Type          LPS  days hr:min     m/sec    Flow   Depth
  -----------------------------------------------------------------------------
  WS02003066WSF200     CONDUIT    938.63     0  03:04      3.23    0.16    0.31
  WS02006287WS02006284 CONDUIT    679.00     0  03:02      2.38    0.31    0.39
  WS02006284WS02006280 CONDUIT    680.23     0  03:02      2.62    0.28    0.37
  WS02006280WS02006229 CONDUIT    680.32     0  03:02      3.80    0.15    0.50
  WS02006229WS02006228 CONDUIT    914.15     0  03:02      1.82    3.03    1.00
  WS02006256WS02006235 CONDUIT    288.60     0  00:00      4.23    3.05    1.00
  WS02006253WS02006251 CONDUIT    143.92     0  03:01      0.45    0.43    1.00
  WS02006252WS02006251 CONDUIT    404.00     0  07:10      3.21    1.48    1.00
  WS02006251WS02006249 CONDUIT    453.78     0  02:20      1.18    1.31    1.00
  WS02006249WS02006248 CONDUIT    417.14     0  07:20      1.14    2.29    1.00
  WS02006248WS02006247 CONDUIT    416.32     0  07:20      1.10    0.91    1.00
  WS02006247WS02006245 CONDUIT    415.94     0  07:20      1.08    3.30    1.00
  WS02006245WS02006243 CONDUIT    416.26     0  07:20      1.10    1.23    1.00
  WS02006243WS02006242 CONDUIT    416.06     0  07:20      1.08    0.89    1.00
  WS02006242WS02006240 CONDUIT    416.13     0  07:20      1.08    1.65    1.00
  WS02006240WS02006239 CONDUIT    417.04     0  07:20      1.08    1.31    1.00
  WS02006239WS02006238 CONDUIT    417.46     0  07:20      1.08    1.34    1.00
  WS02006238WS02006235 CONDUIT    419.40     0  07:20      1.46    0.94    1.00
  WS02006235WS02006234 CONDUIT    523.23     0  07:17      1.36    5.52    1.00
  WS02006234WS02006232 CONDUIT    523.02     0  07:10      1.39    1.06    1.00
  WS02006232WS02006231 CONDUIT    523.02     0  07:10      1.36    1.10    1.00
  WS02006231WS02006230 CONDUIT    523.62     0  07:22      1.36    7.94    1.00
  WS02006230WS02006229 CONDUIT    534.13     0  07:10      1.39   11.89    1.00
  WS02006228WS02006109 CONDUIT    914.35     0  03:02      1.82    3.99    1.00
  WS02006116WS02004401 CONDUIT    939.77     0  03:02      1.20    1.30    1.00
  WS02006115WS02006116 CONDUIT    940.01     0  03:02      1.20    1.21    1.00
  WS02006113WS02006111 CONDUIT    915.96     0  03:03      2.61    1.10    1.00
  WS02006112WS02006115 CONDUIT    939.55     0  03:02      1.20    0.55    1.00
  WS02006111WS02006112 CONDUIT    916.04     0  03:03      1.82    0.44    1.00
  WS02006110WS02006113 CONDUIT    915.77     0  03:03      1.82    0.83    1.00
  WS02006109WS02006110 CONDUIT    915.61     0  03:03      1.82    1.76    1.00
  WS02004411WS02004412 CONDUIT    937.57     0  03:03      1.24    1.33    0.92
  WS02004401WS02004402 CONDUIT    940.62     0  03:02      1.20    1.13    1.00
  WS02004413WS02003067 CONDUIT    938.17     0  03:04      1.55    0.40    0.72
  WS02004412WS02004413 CONDUIT    938.07     0  03:04      1.22    0.63    0.95
  WS02004410WS02004411 CONDUIT    937.99     0  03:03      1.23    1.28    0.94
  WS02004409WS02004410 CONDUIT    938.45     0  03:03      1.22    1.21    0.95
  WS02004407WS02004409 CONDUIT    939.63     0  03:03      1.66    0.33    0.68
  WS02004406WS02004407 CONDUIT    939.84     0  03:03      1.60    0.42    0.70
  WS02004405WS02004406 CONDUIT    940.34     0  03:02      1.20    1.85    1.00
  WS02004404WS02004405 CONDUIT    940.62     0  03:02      1.20    9.22    1.00
  WS02004403WS02004404 CONDUIT    940.27     0  03:02      1.20    0.68    1.00
  WS02004402WS02004403 CONDUIT    940.03     0  03:02      1.20    1.35    1.00
  WS02004139WS02001211 CONDUIT    374.14     0  01:40      0.79    0.47    0.56
  WS02004138WS02004139 CONDUIT    379.27     0  01:40      3.32    0.08    0.42
  WS02003067WS02003066 CONDUIT    938.66     0  03:04      1.66    0.30    0.50
  WS02001213WS02003059 CONDUIT    375.12     0  01:41      0.73    0.62    0.77
  WS02001212WS02001213 CONDUIT    376.67     0  01:41      1.31    0.58    0.44
  WS02001211WS02001212 CONDUIT    377.59     0  01:41      0.77    0.29    0.61
  WS02003072WS02003073 CONDUIT   1067.23     0  03:13      1.81    2.31    0.52
  WS02003069WS02003072 CONDUIT   1067.23     0  03:12      1.69    0.51    0.55
  WS02003060WS02003069 CONDUIT   1067.03     0  03:12      1.92    0.42    0.49
  WS02003059WS02003060 CONDUIT    372.83     0  01:42      0.93    0.24    0.68
  HS02004901HS02004770 CONDUIT     37.24     0  03:01      0.10    0.14    0.53
  HS02004876HS02004881 CONDUIT    127.65     0  03:01      1.21    1.36    0.15
  HS02004870HS02004876 CONDUIT    103.11     0  03:01      0.82    0.07    0.18
  HS02004842HS02004848 CONDUIT     16.84     0  03:01      0.07    0.01    0.33
  HS02004837HS02004842 CONDUIT     17.91     0  03:03      0.42    0.01    0.35
  HS02004830HS02004837 CONDUIT     64.65     0  03:01      0.67    0.06    0.14
  HS02004824HS02004830 CONDUIT     64.13     0  03:02      0.62    0.08    0.16
  HS02004817HS02004824 CONDUIT    123.87     0  03:01      0.31    0.06    0.58
  HS02004770HS02004777 CONDUIT    185.00     0  03:01      0.49    0.34    0.54
  HS02004799HS02004480 CONDUIT    444.39     0  03:01      1.07    0.56    0.60
  HS02004792HS02004799 CONDUIT    408.52     0  03:01      1.20    0.25    0.49
  HS02004788HS02004792 CONDUIT    232.95     0  03:02      1.28    0.15    0.26
  HS02004785HS02004788 CONDUIT    181.79     0  03:02      0.91    1.37    0.29
  HS02004777HS02004785 CONDUIT    182.07     0  03:01      0.57    0.22    0.45
  HS02004480HS02004478 CONDUIT    517.40     0  03:01      1.55    2.18    0.48
  HS02004479HS02004480 CONDUIT     77.32     0  03:02      0.30    0.07    0.57
  HS02004862HS02004870 CONDUIT     79.03     0  03:01      0.80    0.09    0.14
  HS02004848HS02004852 CONDUIT     37.85     0  03:01      0.53    0.04    0.10
  HS02004856HS02004862 CONDUIT     54.77     0  03:01      0.59    0.05    0.13
  HS02004852HS02004856 CONDUIT     37.76     0  03:02      0.34    0.04    0.16
  HS02004802HS02004478 CONDUIT    170.17     0  03:04      0.54    0.15    0.48
  HS02004478WS02006287 CONDUIT    677.72     0  03:02      2.11    0.19    0.36
  HS02004817HS02004807 CONDUIT    128.13     0  03:04      0.25    0.08    0.75
  HS02004807HS02004802 CONDUIT    165.31     0  03:04      0.46    0.32    0.53
  YS02001759YS02001757 CONDUIT    703.04     0  02:48      0.90    0.50    1.00
  YS02001762YS02001759 CONDUIT    354.53     0  02:47      0.45    0.41    1.00
  YS02001765YS02001762 CONDUIT    354.79     0  02:47      0.45    0.33    1.00
  YS02001770YS02001767 CONDUIT    354.22     0  02:47      0.45    1.40    1.00
  YS02001774YS02001770 CONDUIT    573.12     0  03:12      0.73    0.37    1.00
  YS02001779YS02001774 CONDUIT    573.39     0  03:12      0.73    0.29    1.00
  YS02001649YS02001757 CONDUIT    942.92     0  02:43      1.20    0.57    1.00
  YS02001767YS02001765 CONDUIT    355.12     0  02:47      0.45    0.45    1.00
  YS02006561YS02001783 CONDUIT    970.85     0  03:00      2.12    0.50    1.00
  YS02001783YS02001784 CONDUIT    970.71     0  03:00      1.93    1.34    1.00
  YS02001784YS02001785 CONDUIT    972.04     0  03:01      1.93    2.26    1.00
  YS02001788YS02001790 CONDUIT    972.28     0  03:01      2.41    0.72    1.00
  YS02001790YS02001791 CONDUIT    972.11     0  03:01      2.84    1.06    1.00
  YS02001791YS02001793 CONDUIT    972.78     0  03:01      5.46    0.42    1.00
  YS02001910YS02001907 CONDUIT    591.32     0  03:01      0.75    0.33    1.00
  YS02001786YS02001788 CONDUIT    971.91     0  03:00      2.29    1.87    1.00
  YS02001915YS02001910 CONDUIT    591.48     0  03:01      0.75    0.29    1.00
  YS02001918YS02001915 CONDUIT    279.62     0  02:48      0.44    0.15    1.00
  YS02001923YS02001920 CONDUIT    276.07     0  02:48      0.75    0.12    1.00
  YS02001926YS02001923 CONDUIT    275.92     0  02:48      0.86    0.39    0.96
  YS02001929YS02001926 CONDUIT    213.65     0  02:48      0.91    0.10    0.86
  YS02001920YS02001918 CONDUIT    279.70     0  02:48      0.72    0.27    1.00
  YS02001629YS02163301 CONDUIT    217.20     0  02:35      0.28    0.27    1.00
  YS02001619YS02001622 CONDUIT    381.44     0  03:01      0.59    0.56    1.00
  YS02001622YS02001625 CONDUIT    380.80     0  03:01      0.48    0.20    1.00
  YS02001625YS02001629 CONDUIT    209.30     0  02:41      0.27    0.10    1.00
  YS02163301YS02001633 CONDUIT    219.97     0  02:35      0.28    0.21    1.00
  YS02163601YS02164001 CONDUIT    443.75     0  02:42      0.56    0.39    1.00
  YS02164001YS02001641 CONDUIT    443.55     0  02:42      0.56    0.61    1.00
  YS02001641YS02001644 CONDUIT    443.43     0  02:42      0.56    1.43    1.00
  YS02001647YS02001649 CONDUIT    675.42     0  02:42      0.86    0.36    1.00
  YS02006553YS02006556 CONDUIT    683.43     0  03:52      0.87    0.58    1.00
  YS02006556YS02006558 CONDUIT    683.83     0  03:52      0.87    0.54    1.00
  YSB6556YSB1171       CONDUIT     42.83     0  03:02      0.13    0.04    0.82
  YS02001907YS02006553 CONDUIT    683.47     0  03:52      0.76    0.80    1.00
  YS02006558YS02006561 CONDUIT    970.70     0  03:01      3.43    2.15    1.00
  YS02001633YS02163601 CONDUIT    443.80     0  02:42      0.57    0.47    1.00
  YS02001644YS02001647 CONDUIT    675.70     0  02:42      0.86    0.40    1.00
  YS02001745YS02001748 CONDUIT    477.44     0  02:37      1.46    0.18    0.96
  YS02001748YS02001751 CONDUIT    443.78     0  03:01      1.03    0.22    1.00
  YS02001751YS02001754 CONDUIT    444.02     0  03:01      0.88    0.21    1.00
  YS02001754YS02001757 CONDUIT    444.42     0  03:01      0.57    0.18    1.00
  YS02001882YS02001884 CONDUIT     25.98     0  02:30      0.12    0.03    1.00
  YS02001884YS02001887 CONDUIT     50.84     0  02:30      0.08    0.07    1.00
  YS02001890YS02001895 CONDUIT    518.14     0  03:01      0.66    0.24    1.00
  YS02001895YS02001898 CONDUIT    517.96     0  03:01      0.66    0.90    1.00
  YS02001898YS02001901 CONDUIT    518.66     0  02:57      0.66    0.33    1.00
  YS02001901YS02001904 CONDUIT    517.81     0  02:57      0.66    0.80    1.00
  YS02001904YS02001907 CONDUIT    518.40     0  02:57      0.66    0.18    1.00
  YS02001887YS02001890 CONDUIT    680.51     0  03:01      0.87    1.16    1.00
  YS02001652YS02001649 CONDUIT    511.01     0  03:01      0.65    0.25    1.00
  YS02001655YS02001652 CONDUIT    510.68     0  03:01      0.94    0.25    1.00
  YS02001658YS02001655 CONDUIT    509.52     0  03:01      1.18    0.22    1.00
  YS02001661YS02001658 CONDUIT    652.27     0  02:33      1.53    0.26    1.00
  YS02001664YS02001661 CONDUIT    711.91     0  02:48      1.50    0.22    0.77
  YSB1154YSB6556       CONDUIT     43.29     0  03:01      0.18    0.08    0.73
  YSB1174YSB1171       CONDUIT     36.65     0  03:01      0.11    0.06    0.85
  YSB1171HS02004479    CONDUIT     75.44     0  03:02      0.54    0.05    0.68
  HS02004881HS02006253 CONDUIT    140.49     0  03:01      1.72    0.03    0.54
  YS02001793JiankangQianchi CONDUIT    972.92     0  03:01     14.83    0.08    1.00
  YS02001757CaochengTiaoxuchi CONDUIT   1822.07     0  02:44      2.45    0.80    1.00
  WSF200WS02003060     CONDUIT    937.03     0  03:04      2.38    0.21    0.40
  1                    CONDUIT   1069.03     0  03:13      3.39    0.37    0.42
  CC-Pump-1            PUMP       200.00     0  05:40              1.00
  CC-Pump-2            PUMP       200.00     0  02:10              1.00
  JK-Pump-1            PUMP       300.00     0  00:00              1.00
  JK-Pump-2            PUMP       683.00     0  02:40              1.00
  XR-Pump-1            PUMP        95.00     0  01:40              1.00
  XR-Pump-2            PUMP        95.00     0  01:00              1.00
  XR-Pump-3            PUMP        95.00     0  00:30              1.00
  XR-Pump-4            PUMP        95.00     0  00:00              1.00
  
  
  ***************************
  Flow Classification Summary
  ***************************
  
  -------------------------------------------------------------------------------------
                      Adjusted    ---------- Fraction of Time in Flow Class ---------- 
                       /Actual         Up    Down  Sub   Sup   Up    Down  Norm  Inlet 
  Conduit               Length    Dry  Dry   Dry   Crit  Crit  Crit  Crit  Ltd   Ctrl  
  -------------------------------------------------------------------------------------
  WS02003066WSF200        1.00   0.05  0.01  0.00  0.00  0.94  0.00  0.00  0.35  0.00
  WS02006287WS02006284    1.00   0.02  0.01  0.00  0.61  0.35  0.00  0.00  0.65  0.00
  WS02006284WS02006280    1.00   0.03  0.00  0.00  0.00  0.00  0.00  0.97  0.00  0.00
  WS02006280WS02006229    1.00   0.03  0.00  0.00  0.01  0.05  0.00  0.91  0.04  0.00
  WS02006229WS02006228    1.00   0.00  0.00  0.00  1.00  0.00  0.00  0.00  0.00  0.00
  WS02006256WS02006235    1.00   0.00  0.00  0.00  1.00  0.00  0.00  0.00  0.00  0.00
  WS02006253WS02006251    1.00   0.01  0.01  0.00  0.97  0.00  0.00  0.00  0.00  0.00
  WS02006252WS02006251    1.00   0.06  0.00  0.00  0.16  0.00  0.78  0.00  0.00  0.00
  WS02006251WS02006249    1.00   0.00  0.00  0.00  1.00  0.00  0.00  0.00  0.21  0.00
  WS02006249WS02006248    1.00   0.00  0.01  0.00  0.93  0.00  0.06  0.00  0.00  0.00
  WS02006248WS02006247    1.00   0.01  0.00  0.00  0.98  0.00  0.00  0.01  0.09  0.00
  WS02006247WS02006245    1.00   0.00  0.00  0.00  0.98  0.00  0.00  0.02  0.00  0.00
  WS02006245WS02006243    1.00   0.00  0.00  0.00  0.95  0.00  0.00  0.04  0.01  0.00
  WS02006243WS02006242    1.00   0.00  0.00  0.00  1.00  0.00  0.00  0.00  0.20  0.00
  WS02006242WS02006240    1.00   0.00  0.00  0.00  1.00  0.00  0.00  0.00  0.00  0.00
  WS02006240WS02006239    1.00   0.00  0.00  0.00  0.96  0.00  0.00  0.04  0.01  0.00
  WS02006239WS02006238    1.00   0.00  0.00  0.00  1.00  0.00  0.00  0.00  0.00  0.00
  WS02006238WS02006235    1.00   0.00  0.00  0.00  1.00  0.00  0.00  0.00  0.00  0.00
  WS02006235WS02006234    1.00   0.00  0.00  0.00  0.97  0.00  0.03  0.00  0.00  0.00
  WS02006234WS02006232    1.00   0.00  0.00  0.00  1.00  0.00  0.00  0.00  0.07  0.00
  WS02006232WS02006231    1.00   0.00  0.00  0.00  1.00  0.00  0.00  0.00  0.00  0.00
  WS02006231WS02006230    1.00   0.00  0.00  0.00  0.82  0.00  0.18  0.00  0.00  0.00
  WS02006230WS02006229    1.00   0.00  0.00  0.00  1.00  0.00  0.00  0.00  0.01  0.00
  WS02006228WS02006109    1.00   0.00  0.00  0.00  1.00  0.00  0.00  0.00  0.00  0.00
  WS02006116WS02004401    1.00   0.01  0.00  0.00  0.99  0.00  0.00  0.00  0.00  0.00
  WS02006115WS02006116    1.00   0.01  0.00  0.00  0.98  0.00  0.00  0.01  0.01  0.00
  WS02006113WS02006111    1.00   0.00  0.00  0.00  0.07  0.93  0.00  0.00  0.11  0.00
  WS02006112WS02006115    1.00   0.01  0.00  0.00  0.99  0.00  0.00  0.00  0.00  0.00
  WS02006111WS02006112    1.00   0.01  0.00  0.00  0.99  0.00  0.00  0.00  0.82  0.00
  WS02006110WS02006113    1.00   0.00  0.00  0.00  1.00  0.00  0.00  0.00  0.00  0.00
  WS02006109WS02006110    1.00   0.00  0.00  0.00  1.00  0.00  0.00  0.00  0.00  0.00
  WS02004411WS02004412    1.00   0.04  0.00  0.00  0.96  0.00  0.00  0.00  0.00  0.00
  WS02004401WS02004402    1.00   0.01  0.00  0.00  0.99  0.00  0.00  0.00  0.00  0.00
  WS02004413WS02003067    1.00   0.05  0.01  0.00  0.00  0.00  0.94  0.00  0.00  0.00
  WS02004412WS02004413    1.00   0.04  0.00  0.00  0.95  0.00  0.00  0.00  0.01  0.00
  WS02004410WS02004411    1.00   0.04  0.00  0.00  0.96  0.00  0.00  0.00  0.00  0.00
  WS02004409WS02004410    1.00   0.04  0.00  0.00  0.96  0.00  0.00  0.00  0.00  0.00
  WS02004407WS02004409    1.00   0.04  0.00  0.00  0.95  0.01  0.00  0.00  0.81  0.00
  WS02004406WS02004407    1.00   0.00  0.04  0.00  0.96  0.00  0.00  0.00  0.00  0.00
  WS02004405WS02004406    1.00   0.00  0.00  0.00  1.00  0.00  0.00  0.00  0.01  0.00
  WS02004404WS02004405    1.00   0.00  0.00  0.00  1.00  0.00  0.00  0.00  0.00  0.00
  WS02004403WS02004404    1.00   0.00  0.01  0.00  0.99  0.00  0.00  0.00  0.02  0.00
  WS02004402WS02004403    1.00   0.01  0.00  0.00  0.99  0.00  0.00  0.00  0.00  0.00
  WS02004139WS02001211    1.00   0.00  0.00  0.00  1.00  0.00  0.00  0.00  0.00  0.00
  WS02004138WS02004139    1.00   0.00  0.00  0.00  1.00  0.00  0.00  0.00  1.00  0.00
  WS02003067WS02003066    1.00   0.06  0.00  0.00  0.94  0.00  0.00  0.00  0.00  0.00
  WS02001213WS02003059    1.00   0.00  0.00  0.00  1.00  0.00  0.00  0.00  0.00  0.00
  WS02001212WS02001213    1.00   0.00  0.00  0.00  0.90  0.00  0.10  0.00  0.00  0.00
  WS02001211WS02001212    1.00   0.00  0.00  0.00  1.00  0.00  0.00  0.00  0.00  0.00
  WS02003072WS02003073    1.00   0.00  0.00  0.00  0.00  0.00  0.00  1.00  0.00  0.00
  WS02003069WS02003072    1.00   0.00  0.00  0.00  1.00  0.00  0.00  0.00  0.19  0.00
  WS02003060WS02003069    1.00   0.00  0.00  0.00  0.99  0.01  0.00  0.00  0.11  0.00
  WS02003059WS02003060    1.00   0.00  0.00  0.00  1.00  0.00  0.00  0.00  0.01  0.00
  HS02004901HS02004770    1.00   0.03  0.00  0.00  0.97  0.00  0.00  0.00  0.00  0.00
  HS02004876HS02004881    1.00   0.01  0.00  0.00  0.92  0.07  0.00  0.00  0.00  0.00
  HS02004870HS02004876    1.00   0.00  0.00  0.00  1.00  0.00  0.00  0.00  0.95  0.00
  HS02004842HS02004848    1.00   0.00  0.03  0.00  0.97  0.00  0.00  0.00  0.54  0.00
  HS02004837HS02004842    1.00   0.00  0.00  0.00  1.00  0.00  0.00  0.00  0.11  0.00
  HS02004830HS02004837    1.00   0.00  0.00  0.00  1.00  0.00  0.00  0.00  0.99  0.00
  HS02004824HS02004830    1.00   0.00  0.00  0.00  1.00  0.00  0.00  0.00  0.01  0.00
  HS02004817HS02004824    1.00   0.00  0.00  0.00  1.00  0.00  0.00  0.00  0.97  0.00
  HS02004770HS02004777    1.00   0.00  0.03  0.00  0.97  0.00  0.00  0.00  0.03  0.00
  HS02004799HS02004480    1.00   0.00  0.01  0.00  0.96  0.00  0.03  0.00  0.00  0.00
  HS02004792HS02004799    1.00   0.00  0.00  0.00  1.00  0.00  0.00  0.00  0.98  0.00
  HS02004788HS02004792    1.00   0.00  0.00  0.00  1.00  0.00  0.00  0.00  0.98  0.00
  HS02004785HS02004788    1.00   0.00  0.00  0.00  1.00  0.00  0.00  0.00  0.00  0.00
  HS02004777HS02004785    1.00   0.00  0.00  0.00  1.00  0.00  0.00  0.00  0.12  0.00
  HS02004480HS02004478    1.00   0.03  0.00  0.00  0.68  0.00  0.00  0.29  0.00  0.00
  HS02004479HS02004480    1.00   0.01  0.00  0.00  0.99  0.00  0.00  0.00  0.12  0.00
  HS02004862HS02004870    1.00   0.00  0.00  0.00  1.00  0.00  0.00  0.00  0.04  0.00
  HS02004848HS02004852    1.00   0.03  0.00  0.00  0.97  0.00  0.00  0.00  0.64  0.00
  HS02004856HS02004862    1.00   0.00  0.04  0.00  0.96  0.00  0.00  0.00  0.83  0.00
  HS02004852HS02004856    1.00   0.03  0.00  0.00  0.97  0.00  0.00  0.00  0.81  0.00
  HS02004802HS02004478    1.00   0.03  0.00  0.00  0.97  0.00  0.00  0.00  0.02  0.00
  HS02004478WS02006287    1.00   0.04  0.00  0.00  0.74  0.22  0.00  0.00  0.65  0.00
  HS02004817HS02004807    1.00   0.00  0.03  0.00  0.97  0.00  0.00  0.00  0.01  0.00
  HS02004807HS02004802    1.00   0.03  0.00  0.00  0.97  0.00  0.00  0.00  0.00  0.00
  YS02001759YS02001757    1.00   0.00  0.00  0.00  1.00  0.00  0.00  0.00  0.16  0.00
  YS02001762YS02001759    1.00   0.00  0.00  0.00  1.00  0.00  0.00  0.00  0.03  0.00
  YS02001765YS02001762    1.00   0.00  0.00  0.00  1.00  0.00  0.00  0.00  0.14  0.00
  YS02001770YS02001767    1.00   0.00  0.00  0.00  1.00  0.00  0.00  0.00  0.00  0.00
  YS02001774YS02001770    1.00   0.00  0.03  0.00  0.97  0.00  0.00  0.00  0.03  0.00
  YS02001779YS02001774    1.00   0.00  0.00  0.00  1.00  0.00  0.00  0.00  0.19  0.00
  YS02001649YS02001757    1.00   0.00  0.00  0.00  1.00  0.00  0.00  0.00  0.16  0.00
  YS02001767YS02001765    1.00   0.00  0.00  0.00  1.00  0.00  0.00  0.00  0.00  0.00
  YS02006561YS02001783    1.00   0.04  0.00  0.00  0.36  0.59  0.00  0.00  0.49  0.00
  YS02001783YS02001784    1.00   0.00  0.04  0.00  0.96  0.00  0.00  0.00  0.00  0.00
  YS02001784YS02001785    1.00   0.00  0.00  0.00  1.00  0.00  0.00  0.00  0.18  0.00
  YS02001788YS02001790    1.00   0.00  0.00  0.00  0.42  0.58  0.00  0.00  0.42  0.00
  YS02001790YS02001791    1.00   0.00  0.00  0.00  0.38  0.62  0.00  0.00  0.44  0.00
  YS02001791YS02001793    1.00   0.00  0.00  0.00  0.41  0.59  0.00  0.00  0.02  0.00
  YS02001910YS02001907    1.00   0.00  0.00  0.00  0.99  0.00  0.00  0.01  0.12  0.00
  YS02001786YS02001788    1.00   0.00  0.00  0.00  0.41  0.59  0.00  0.00  0.00  0.00
  YS02001915YS02001910    1.00   0.00  0.00  0.00  0.99  0.01  0.00  0.00  0.16  0.00
  YS02001918YS02001915    1.00   0.00  0.00  0.00  0.99  0.00  0.00  0.00  0.53  0.00
  YS02001923YS02001920    1.00   0.00  0.00  0.00  1.00  0.00  0.00  0.00  0.81  0.00
  YS02001926YS02001923    1.00   0.00  0.02  0.00  0.15  0.00  0.83  0.00  0.00  0.00
  YS02001929YS02001926    1.00   0.00  0.03  0.00  0.97  0.00  0.00  0.00  0.73  0.00
  YS02001920YS02001918    1.00   0.00  0.00  0.00  1.00  0.00  0.00  0.00  0.00  0.00
  YS02001629YS02163301    1.00   0.04  0.00  0.00  0.96  0.00  0.00  0.00  0.00  0.00
  YS02001619YS02001622    1.00   0.03  0.00  0.00  0.97  0.00  0.00  0.00  0.00  0.00
  YS02001622YS02001625    1.00   0.03  0.00  0.00  0.97  0.00  0.00  0.00  0.05  0.00
  YS02001625YS02001629    1.00   0.03  0.01  0.00  0.94  0.00  0.02  0.00  0.00  0.00
  YS02163301YS02001633    1.00   0.00  0.03  0.00  0.97  0.00  0.00  0.00  0.00  0.00
  YS02163601YS02164001    1.00   0.00  0.02  0.00  0.98  0.00  0.00  0.00  0.00  0.00
  YS02164001YS02001641    1.00   0.00  0.02  0.00  0.98  0.00  0.00  0.00  0.06  0.00
  YS02001641YS02001644    1.00   0.00  0.00  0.00  1.00  0.00  0.00  0.00  0.00  0.00
  YS02001647YS02001649    1.00   0.00  0.04  0.00  0.96  0.00  0.00  0.00  0.01  0.00
  YS02006553YS02006556    1.00   0.00  0.00  0.00  1.00  0.00  0.00  0.00  0.03  0.00
  YS02006556YS02006558    1.00   0.00  0.00  0.00  1.00  0.00  0.00  0.00  0.00  0.00
  YSB6556YSB1171          1.00   0.01  0.02  0.00  0.97  0.00  0.00  0.00  0.00  0.00
  YS02001907YS02006553    1.00   0.00  0.01  0.00  0.99  0.00  0.00  0.00  0.00  0.00
  YS02006558YS02006561    1.00   0.04  0.00  0.00  0.16  0.80  0.00  0.00  0.45  0.00
  YS02001633YS02163601    1.00   0.00  0.00  0.00  1.00  0.00  0.00  0.00  0.15  0.00
  YS02001644YS02001647    1.00   0.00  0.04  0.00  0.96  0.00  0.00  0.00  0.00  0.00
  YS02001745YS02001748    1.00   0.00  0.00  0.00  0.90  0.01  0.00  0.09  0.05  0.00
  YS02001748YS02001751    1.00   0.00  0.00  0.00  0.97  0.03  0.00  0.00  0.15  0.00
  YS02001751YS02001754    1.00   0.00  0.00  0.00  0.95  0.00  0.00  0.05  0.02  0.00
  YS02001754YS02001757    1.00   0.00  0.00  0.00  1.00  0.00  0.00  0.00  0.18  0.00
  YS02001882YS02001884    1.00   0.03  0.00  0.00  0.96  0.00  0.00  0.00  0.00  0.00
  YS02001884YS02001887    1.00   0.01  0.01  0.00  0.97  0.00  0.00  0.00  0.00  0.00
  YS02001890YS02001895    1.00   0.00  0.04  0.00  0.96  0.00  0.00  0.00  0.00  0.00
  YS02001895YS02001898    1.00   0.04  0.00  0.00  0.95  0.00  0.01  0.00  0.00  0.00
  YS02001898YS02001901    1.00   0.04  0.00  0.00  0.96  0.00  0.00  0.00  0.01  0.00
  YS02001901YS02001904    1.00   0.04  0.00  0.00  0.96  0.00  0.00  0.00  0.00  0.00
  YS02001904YS02001907    1.00   0.00  0.04  0.00  0.96  0.00  0.00  0.00  0.00  0.00
  YS02001887YS02001890    1.00   0.00  0.00  0.00  0.99  0.00  0.01  0.00  0.00  0.00
  YS02001652YS02001649    1.00   0.00  0.00  0.00  1.00  0.00  0.00  0.00  0.17  0.00
  YS02001655YS02001652    1.00   0.00  0.00  0.00  0.95  0.00  0.00  0.05  0.02  0.00
  YS02001658YS02001655    1.00   0.00  0.03  0.00  0.94  0.03  0.00  0.00  0.10  0.00
  YS02001661YS02001658    1.00   0.03  0.00  0.00  0.90  0.07  0.00  0.00  0.12  0.00
  YS02001664YS02001661    1.00   0.03  0.00  0.00  0.88  0.09  0.00  0.00  0.21  0.00
  YSB1154YSB6556          1.00   0.03  0.00  0.00  0.97  0.00  0.00  0.00  0.02  0.00
  YSB1174YSB1171          1.00   0.01  0.01  0.00  0.98  0.00  0.00  0.00  0.00  0.00
  YSB1171HS02004479       1.00   0.01  0.00  0.00  0.99  0.00  0.00  0.00  0.10  0.00
  HS02004881HS02006253    1.00   0.01  0.00  0.00  0.79  0.03  0.00  0.17  0.66  0.00
  YS02001793JiankangQianchi    1.00   0.00  0.00  0.00  0.63  0.37  0.00  0.00  0.18  0.00
  YS02001757CaochengTiaoxuchi    1.00   0.00  0.06  0.00  0.94  0.00  0.00  0.00  0.00  0.00
  WSF200WS02003060        1.00   0.00  0.05  0.00  0.44  0.51  0.00  0.00  0.07  0.00
  1                       1.00   0.00  0.00  0.00  0.00  1.00  0.00  0.00  0.39  0.00
  
  
  *************************
  Conduit Surcharge Summary
  *************************
  
  ----------------------------------------------------------------------------
                                                           Hours        Hours 
                         --------- Hours Full --------   Above Full   Capacity
  Conduit                Both Ends  Upstream  Dnstream   Normal Flow   Limited
  ----------------------------------------------------------------------------
  WS02006229WS02006228        4.44      4.52      4.44      5.54         4.44
  WS02006256WS02006235        6.01      6.02      7.33      5.06         0.01
  WS02006253WS02006251        2.52      2.52      2.70      0.01         0.02
  WS02006252WS02006251        1.85      1.85      3.07      2.19         0.01
  WS02006251WS02006249        2.58      2.58      2.81      1.14         0.94
  WS02006249WS02006248        2.66      2.66      2.81      4.03         0.01
  WS02006248WS02006247        2.79      2.79      3.10      0.01         0.01
  WS02006247WS02006245        3.08      3.16      3.08      4.88         2.87
  WS02006245WS02006243        3.14      3.14      3.30      0.45         0.46
  WS02006243WS02006242        3.35      3.35      3.77      0.01         0.01
  WS02006242WS02006240        3.65      3.65      4.00      2.50         0.01
  WS02006240WS02006239        3.70      3.71      3.85      1.11         0.81
[...]
  YS02001770YS02001767        5.69      5.69      5.69      0.27         0.78
  YS02001774YS02001770        5.67      5.67      5.74      0.01         0.01
  YS02001779YS02001774        5.50      5.50      5.74      0.01         0.01
  YS02001649YS02001757        5.75      5.75      5.86      0.01         0.01
  YS02001767YS02001765        5.69      5.69      5.71      0.01         0.01
  YS02006561YS02001783        1.06      1.06      1.51      0.01         0.01
  YS02001783YS02001784        1.49      1.51      1.60      1.49         1.34
  YS02001784YS02001785        1.46      1.60      1.46      2.51         1.46
  YS02001788YS02001790        1.37      1.37      2.34      0.01         0.01
  YS02001790YS02001791        2.34      2.34      2.39      1.06         1.03
  YS02001791YS02001793        2.39      2.39      2.68      0.01         0.01
  YS02001910YS02001907        1.34      1.34      1.88      0.01         0.01
  YS02001786YS02001788        1.36      1.46      1.37      2.11         1.36
  YS02001915YS02001910        1.18      1.18      1.34      0.01         0.01
  YS02001918YS02001915        0.95      0.95      1.18      0.01         0.01
  YS02001923YS02001920        0.78      0.78      0.98      0.01         0.01
  YS02001920YS02001918        0.95      0.95      0.98      0.01         0.01
  YS02001629YS02163301        5.66      5.66      5.68      0.01         0.01
  YS02001619YS02001622        5.30      5.30      5.34      0.01         0.01
  YS02001622YS02001625        5.34      5.34      5.63      0.01         0.01
  YS02001625YS02001629        5.32      5.32      5.63      0.01         0.01
  YS02163301YS02001633        5.68      5.68      5.72      0.01         0.01
  YS02163601YS02164001        5.72      5.72      5.75      0.01         0.01
  YS02164001YS02001641        5.72      5.72      5.72      0.01         0.03
  YS02001641YS02001644        5.72      5.72      5.73      1.71         1.96
  YS02001647YS02001649        5.60      5.60      5.75      0.01         0.01
  YS02006553YS02006556        1.53      1.53      1.96      0.01         0.01
  YS02006556YS02006558        1.68      1.68      2.04      0.01         0.01
  YSB6556YSB1171              0.01      0.01      0.07      0.01         0.01
  YS02001907YS02006553        2.52      2.52      2.75      0.01         0.01
  YS02006558YS02006561        1.16      1.50      1.16      2.35         1.16
  YS02001633YS02163601        5.70      5.70      5.75      0.01         0.01
  YS02001644YS02001647        5.60      5.60      5.73      0.01         0.01
  YS02001745YS02001748        0.01      0.01      5.17      0.01         0.01
  YS02001748YS02001751        5.20      5.20      5.32      0.01         0.01
  YS02001751YS02001754        5.32      5.32      5.51      0.01         0.01
  YS02001754YS02001757        5.59      5.59      5.86      0.01         0.01
  YS02001882YS02001884        1.19      1.19      1.22      0.01         0.01
  YS02001884YS02001887        1.26      1.26      1.28      0.01         0.01
  YS02001890YS02001895        1.17      1.17      1.35      0.01         0.01
  YS02001895YS02001898        1.15      1.15      1.17      0.01         0.01
  YS02001898YS02001901        1.17      1.17      1.26      0.01         0.01
  YS02001901YS02001904        1.24      1.24      1.26      0.01         0.01
  YS02001904YS02001907        1.24      1.24      2.00      0.01         0.01
  YS02001887YS02001890        1.31      1.31      1.33      0.16         0.01
  YS02001652YS02001649        5.61      5.61      5.75      0.01         0.01
  YS02001655YS02001652        5.32      5.32      5.58      0.01         0.01
  YS02001658YS02001655        5.20      5.20      5.32      0.01         0.01
  YS02001661YS02001658        0.15      0.15      5.20      0.01         0.01
  YS02001664YS02001661        0.01      0.01      1.26      0.01         0.01
  HS02004881HS02006253        0.01      0.01      1.44      0.01         0.01
  YS02001793JiankangQianchi        2.60      2.60      3.65      0.01         0.01
  YS02001757CaochengTiaoxuchi        5.01      5.01      5.86      0.01         0.01
  
  
  ***************
  Pumping Summary
  ***************
  
  ---------------------------------------------------------------------------------------------------------
                                                  Min       Avg       Max     Total     Power    % Time Off
                        Percent   Number of      Flow      Flow      Flow    Volume     Usage    Pump Curve
  Pump                 Utilized   Start-Ups       LPS       LPS       LPS  10^6 ltr     Kw-hr    Low   High
  ---------------------------------------------------------------------------------------------------------
  CC-Pump-1               58.63           6      0.00    115.56    200.00     2.009      2.96    0.0   10.9
  CC-Pump-2               68.08           3      0.00    147.88    200.00     2.820      4.21    0.0    7.7
  JK-Pump-1               76.58           9      0.00    167.24    300.00     3.082     42.38    0.0    0.0
  JK-Pump-2               80.85           7      0.00    265.63    683.00     5.114     66.57    0.0   98.3
  XR-Pump-1               89.34           9      0.00     56.94     95.00     1.425      7.78    0.0    0.0
  XR-Pump-2               74.44           9      0.00     61.16     95.00     1.282      7.77    0.0    0.0
  XR-Pump-3               55.31           9      0.00     64.99     95.00     0.998      6.25    0.0    0.0
  XR-Pump-4               82.97           5      0.00     73.97     95.00     1.682      9.54    0.0    0.0
  
  
  ***************************
  Link Pollutant Load Summary
  ***************************
  
  ------------------------------------------------------------------------------------------
                                 COD            SS            TN            TP         NH4-N
  Link                            kg            kg            kg            kg            kg
  ------------------------------------------------------------------------------------------
  WS02003066WSF200           980.288      1827.869        24.697         2.106        12.872
  WS02006287WS02006284       319.551       608.289        10.314         1.015         5.678
  WS02006284WS02006280       320.042       609.100        10.360         1.020         5.707
  WS02006280WS02006229       320.005       609.027        10.358         1.020         5.705
  WS02006229WS02006228       975.358      1819.051        24.128         2.029        12.511
  WS02006256WS02006235       233.416       427.892         5.216         0.407         2.643
  WS02006253WS02006251        65.321       127.865         1.480         0.114         0.741
  WS02006252WS02006251       417.860       768.782         8.325         0.577         4.032
  WS02006251WS02006249       471.545       875.252         9.574         0.675         4.661
  WS02006249WS02006248       431.434       799.034         8.773         0.619         4.273
  WS02006248WS02006247       430.980       798.193         8.766         0.618         4.270
  WS02006247WS02006245       430.474       797.288         8.755         0.618         4.265
  WS02006245WS02006243       429.566       795.655         8.731         0.616         4.252
  WS02006243WS02006242       429.024       794.699         8.723         0.615         4.249
  WS02006242WS02006240       428.065       792.986         8.701         0.614         4.238
  WS02006240WS02006239       427.501       791.997         8.688         0.613         4.231
  WS02006239WS02006238       426.973       791.036         8.680         0.612         4.228
  WS02006238WS02006235       426.585       790.303         8.668         0.611         4.222
  WS02006235WS02006234       658.601      1215.696        13.854         1.016         6.850
  WS02006234WS02006232       657.912      1214.455        13.841         1.015         6.843
  WS02006232WS02006231       657.249      1213.246        13.827         1.014         6.836
  WS02006231WS02006230       656.653      1212.160        13.815         1.013         6.831
  WS02006230WS02006229       655.880      1210.851        13.792         1.011         6.818
  WS02006228WS02006109       974.484      1817.478        24.104         2.027        12.498
  WS02006116WS02004401       989.220      1843.985        24.943         2.127        13.003
  WS02006115WS02006116       990.067      1845.458        24.973         2.130        13.020
  WS02006113WS02006111       980.205      1826.045        24.829         2.121        12.959
  WS02006112WS02006115       990.959      1846.966        25.012         2.134        13.042
  WS02006111WS02006112       980.105      1825.972        24.824         2.120        12.955
  WS02006110WS02006113       980.924      1827.365        24.854         2.123        12.972
  WS02006109WS02006110       982.058      1829.401        24.897         2.127        12.997
  WS02004411WS02004412       983.109      1832.825        24.807         2.117        12.935
  WS02004401WS02004402       988.350      1842.485        24.907         2.124        12.982
  WS02004413WS02003067       981.098      1829.388        24.716         2.107        12.882
  WS02004412WS02004413       982.134      1831.108        24.776         2.114        12.917
  WS02004410WS02004411       983.954      1834.351        24.833         2.120        12.948
  WS02004409WS02004410       984.712      1835.695        24.859         2.122        12.963
  WS02004407WS02004409       985.387      1836.929        24.878         2.124        12.973
  WS02004406WS02004407       985.697      1837.559        24.880         2.124        12.974
  WS02004405WS02004406       986.955      1839.765        24.944         2.131        13.012
  WS02004404WS02004405       987.536      1840.887        24.937         2.129        13.005
  WS02004403WS02004404       986.890      1839.934        24.848         2.117        12.948
  WS02004402WS02004403       987.559      1841.086        24.878         2.121        12.965
  WS02004139WS02001211       756.224      1254.974        61.706         7.541        38.062
  WS02004138WS02004139       759.852      1261.109        61.967         7.572        38.221
  WS02003067WS02003066       980.454      1828.166        24.704         2.107        12.876
  WS02001213WS02003059       794.966      1316.219        65.622         8.033        40.519
  WS02001212WS02001213       801.307      1326.809        66.115         8.093        40.821
  WS02001211WS02001212       802.488      1328.727        66.219         8.106        40.886
  WS02003072WS02003073      1879.219      3309.440       100.614        11.431        59.838
  WS02003069WS02003072      1883.518      3316.414       100.978        11.476        60.064
  WS02003060WS02003069      1884.409      3318.123       100.972        11.474        60.056
  WS02003059WS02003060       792.765      1312.578        65.449         8.012        40.413
  HS02004901HS02004770        13.094        25.476         0.248         0.019         0.116
  HS02004876HS02004881        45.524        90.367         1.000         0.073         0.491
  HS02004870HS02004876        34.388        68.119         0.798         0.060         0.395
  HS02004842HS02004848         6.457        12.345         0.134         0.009         0.062
  HS02004837HS02004842        11.056        19.636         0.603         0.068         0.356
  HS02004830HS02004837        70.299       122.730         4.643         0.552         2.827
  HS02004824HS02004830        71.071       123.988         4.715         0.561         2.871
  HS02004817HS02004824        97.168       176.419         5.254         0.596         3.134
  HS02004770HS02004777        49.668        97.725         1.021         0.069         0.472
  HS02004799HS02004480       162.355       310.907         4.263         0.379         2.210
  HS02004792HS02004799       147.297       280.175         4.029         0.367         2.105
  HS02004788HS02004792        82.830       157.717         2.666         0.255         1.440
  HS02004785HS02004788        51.131       100.071         1.173         0.089         0.567
  HS02004777HS02004785        50.454        98.962         1.112         0.081         0.530
  HS02004480HS02004478       204.863       395.283         4.972         0.429         2.543
  HS02004479HS02004480        46.131        90.125         1.036         0.091         0.538
  HS02004862HS02004870        25.804        50.349         0.628         0.050         0.314
  HS02004848HS02004852        10.253        19.887         0.210         0.014         0.097
  HS02004856HS02004862        17.527        34.756         0.350         0.023         0.164
  HS02004852HS02004856        10.257        19.892         0.210         0.014         0.097
  HS02004802HS02004478       115.349       214.076         5.397         0.592         3.168
  HS02004478WS02006287       319.754       608.634        10.331         1.017         5.689
  HS02004817HS02004807        95.864       174.330         5.129         0.580         3.057
  HS02004807HS02004802       115.606       214.475         5.429         0.596         3.189
  YS02001759YS02001757       379.017       700.272         7.509         0.522         3.665
  YS02001762YS02001759       160.990       295.443         3.428         0.241         1.697
  YS02001765YS02001762       162.120       298.369         3.467         0.245         1.719
  YS02001770YS02001767       164.097       304.404         3.324         0.220         1.616
  YS02001774YS02001770       236.578       459.911         4.574         0.303         2.211
  YS02001779YS02001774       235.759       458.273         4.660         0.317         2.272
  YS02001649YS02001757       358.325       642.979         7.184         0.499         3.445
  YS02001767YS02001765       163.713       302.115         3.512         0.248         1.743
  YS02006561YS02001783      1014.224      1879.294        21.282         1.589        10.593
  YS02001783YS02001784      1014.109      1879.122        21.277         1.589        10.590
  YS02001784YS02001785      1021.440      1890.884        21.990         1.678        11.036
  YS02001788YS02001790      1022.005      1891.815        22.060         1.687        11.080
  YS02001790YS02001791      1023.001      1893.445        22.158         1.699        11.142
  YS02001791YS02001793      1022.856      1893.203        22.152         1.699        11.138
  YS02001910YS02001907       391.171       721.414         9.401         0.720         4.819
  YS02001786YS02001788      1021.663      1891.269        22.017         1.682        11.053
  YS02001915YS02001910       391.240       721.525         9.354         0.713         4.787
  YS02001918YS02001915       188.074       331.886         5.184         0.472         2.792
  YS02001923YS02001920       167.146       297.781         3.226         0.228         1.571
  YS02001926YS02001923       165.076       294.260         3.121         0.216         1.508
  YS02001929YS02001926       164.218       292.801         3.066         0.210         1.475
  YS02001920YS02001918       187.070       329.703         5.141         0.468         2.768
  YS02001629YS02163301        97.362       172.252         2.054         0.133         0.958
  YS02001619YS02001622       175.903       321.191         3.602         0.236         1.684
  YS02001622YS02001625       174.692       319.259         3.573         0.234         1.671
  YS02001625YS02001629        98.468       174.069         2.078         0.134         0.969
  YS02163301YS02001633        97.682       173.040         2.055         0.133         0.960
  YS02163601YS02164001       407.079       735.652         7.926         0.564         3.796
  YS02164001YS02001641       406.551       734.758         7.905         0.562         3.785
  YS02001641YS02001644       406.614       734.786         7.901         0.561         3.782
  YS02001647YS02001649       425.782       776.296         8.416         0.587         4.017
  YS02006553YS02006556       680.278      1249.646        14.657         1.123         7.381
  YS02006556YS02006558       680.212      1249.516        14.628         1.119         7.361
  YSB6556YSB1171              26.524        51.974         0.537         0.045         0.272
  YS02001907YS02006553       680.432      1249.945        14.667         1.125         7.387
  YS02006558YS02006561      1014.196      1879.222        21.282         1.589        10.592
  YS02001633YS02163601       407.803       736.778         7.906         0.560         3.780
  YS02001644YS02001647       431.623       787.056         8.509         0.594         4.060
  YS02001745YS02001748       244.526       458.703         4.959         0.313         2.396
  YS02001748YS02001751       244.515       458.435         5.083         0.331         2.478
  YS02001751YS02001754       243.499       456.753         5.064         0.330         2.470
  YS02001754YS02001757       244.245       457.863         5.229         0.353         2.577
  YS02001882YS02001884         2.886         4.978         0.059         0.005         0.029
  YS02001884YS02001887         6.751        11.947         0.133         0.010         0.066
  YS02001890YS02001895       450.987       846.511         8.302         0.624         4.049
  YS02001895YS02001898       450.803       846.262         8.295         0.624         4.046
  YS02001898YS02001901       450.572       845.866         8.290         0.623         4.043
  YS02001901YS02001904       450.406       845.632         8.296         0.624         4.048
  YS02001904YS02001907       450.605       845.936         8.349         0.631         4.082
  YS02001887YS02001890       468.271       880.778         8.645         0.653         4.223
  YS02001652YS02001649       195.108       363.412         3.921         0.283         1.840
  YS02001655YS02001652       195.655       364.306         3.935         0.284         1.847
  YS02001658YS02001655       195.160       363.542         3.848         0.272         1.790
  YS02001661YS02001658       198.884       370.271         3.923         0.277         1.825
  YS02001664YS02001661       217.157       400.425         4.335         0.305         2.013
  YSB1154YSB6556              26.087        51.275         0.486         0.038         0.239
  YSB1174YSB1171              18.022        35.565         0.361         0.029         0.180
  YSB1171HS02004479           46.095        90.068         1.039         0.092         0.540
  HS02004881HS02006253        51.519       102.610         1.105         0.080         0.541
  YS02001793JiankangQianchi      1022.988      1893.393        22.170         1.701        11.150
  YS02001757CaochengTiaoxuchi       695.933      1268.809        14.089         0.976         6.836
  WSF200WS02003060           979.917      1827.144        24.696         2.106        12.873
  1                         1888.471      3323.260       101.769        11.580        60.571
  CC-Pump-1                  170.967       314.726         3.412         0.236         1.653
  CC-Pump-2                  246.938       454.139         4.914         0.341         2.379
  JK-Pump-1                  241.879       449.212         5.299         0.411         2.675
  JK-Pump-2                  410.936       764.164         8.569         0.640         4.263
  XR-Pump-1                  204.902       339.518        16.799         2.054        10.365
  XR-Pump-2                  182.838       302.495        15.145         1.855         9.354
  XR-Pump-3                  146.362       242.325        12.077         1.479         7.459
  XR-Pump-4                  228.075       380.636        18.131         2.207        11.158
  

  Analysis begun on:  Wed Jun  2 21:24:11 2021
  Analysis ended on:  Wed Jun  2 21:24:15 2021
  Total elapsed time: 00:00:04