
  EPA STORM WATER MANAGEMENT MODEL - VERSION 5.1 (Build 5.3.0.dev0)
  --------------------------------------------------------------

  WARNING 04: minimum elevation drop used for Conduit WS02004404WS02004405
  WARNING 03: negative offset ignored for Link YS02001904YS02001907
  
  *********************************************************
  NOTE: The summary statistics displayed in this report are
  based on results found at every computational time step,  
  not just on results from each reporting time step.
  *********************************************************
  
  ****************
  Analysis Options
  ****************
  Flow Units ............... LPS
  Process Models:
    Rainfall/Runoff ........ YES
    RDII ................... NO
    Snowmelt ............... NO
    Groundwater ............ NO
    Flow Routing ........... YES
    Ponding Allowed ........ NO
    Water Quality .......... YES
  Infiltration Method ...... HORTON
  Flow Routing Method ...... DYNWAVE
  Surcharge Method ......... EXTRAN
  Starting Date ............ 08/28/2015 08:00:00
  Ending Date .............. 08/28/2015 15:50:00
  Antecedent Dry Days ...... 8.0
  Report Time Step ......... 00:01:00
  Wet Time Step ............ 00:01:00
  Dry Time Step ............ 00:01:00
  Routing Time Step ........ 5.00 sec
  Variable Time Step ....... YES
  Maximum Trials ........... 8
  Number of Threads ........ 4
  Head Tolerance ........... 0.001500 m
  
  
  **************************        Volume         Depth
  Runoff Quantity Continuity     hectare-m            mm
  **************************     ---------       -------
  Total Precipitation ......        10.887        23.836
  Evaporation Loss .........         0.000         0.000
  Infiltration Loss ........         1.411         3.089
  Surface Runoff ...........         8.292        18.155
  Final Storage ............         1.186         2.596
  Continuity Error (%) .....        -0.016
  
  
  **************************           COD            SS            TN            TP         NH4-N
  Runoff Quality Continuity             kg            kg            kg            kg            kg
  **************************    ----------    ----------    ----------    ----------    ----------
  Initial Buildup ..........     41378.656     70582.865      1804.177       168.684      1032.807
  Surface Buildup ..........        41.425        91.431         2.568         0.227         1.442
  Wet Deposition ...........         0.000         0.000         0.000         0.000         0.000
  Sweeping Removal .........         0.000         0.000         0.000         0.000         0.000
  Infiltration Loss ........       164.554       320.127         3.263         0.236         1.574
  BMP Removal ..............         0.000         0.000         0.000         0.000         0.000
  Surface Runoff ...........      9366.500     18283.806       183.722        12.955        88.133
  Remaining Buildup ........     31885.964     52064.522      1619.692       155.715       944.511
  Continuity Error (%) .....         0.007         0.008         0.004         0.003         0.003
  
  
  **************************        Volume        Volume
  Flow Routing Continuity        hectare-m      10^6 ltr
  **************************     ---------     ---------
  Dry Weather Inflow .......         0.616         6.165
  Wet Weather Inflow .......         8.290        82.901
  Groundwater Inflow .......         0.000         0.000
  RDII Inflow ..............         0.000         0.000
  External Inflow ..........         0.102         1.024
  External Outflow .........         1.890        18.900
  Flooding Loss ............         6.586        65.864
  Evaporation Loss .........         0.000         0.000
  Exfiltration Loss ........         0.000         0.000
  Initial Stored Volume ....         0.076         0.761
  Final Stored Volume ......         0.669         6.689
  Continuity Error (%) .....        -0.664
  
  
  **************************           COD            SS            TN            TP         NH4-N
  Quality Routing Continuity            kg            kg            kg            kg            kg
  **************************    ----------    ----------    ----------    ----------    ----------
  Dry Weather Inflow .......      1541.201      2465.922       147.955        18.494        92.472
  Wet Weather Inflow .......      9365.292     18281.723       183.695        12.953        88.119
  Groundwater Inflow .......         0.000         0.000         0.000         0.000         0.000
  RDII Inflow ..............         0.000         0.000         0.000         0.000         0.000
  External Inflow ..........       183.418       293.469        17.608         2.201        11.005
  External Outflow .........      2316.935      4305.030        98.588        10.571        56.870
  Flooding Loss ............      8051.055     15451.328       223.058        20.295       119.142
  Exfiltration Loss ........         0.000         0.000         0.000         0.000         0.000
  Mass Reacted .............         0.000         0.000         0.000         0.000         0.000
  Initial Stored Mass ......         0.000         0.000         0.000         0.000         0.000
  Final Stored Mass ........       616.603      1113.668        24.163         2.474        13.726
  Continuity Error (%) .....         0.950         0.813         0.988         0.919         0.970
  
  
  *************************
  Highest Continuity Errors
  *************************
  Node YS02001884 (8.82%)
  Node HS02004842 (7.73%)
  Node JK-storage (-4.05%)
  Node HS02004817 (1.58%)
  Node WS02006253 (1.44%)
  
  
  ***************************
  Time-Step Critical Elements
  ***************************
  Link WS02006252WS02006251 (69.45%)
  Link WS02006280WS02006229 (9.99%)
  Link WS02006238WS02006235 (5.05%)
  Link WS02006109WS02006110 (1.98%)
  Link YS02001661YS02001658 (1.69%)
  
  
  ********************************
  Highest Flow Instability Indexes
  ********************************
  Link WS02006113WS02006111 (34)
  Link YS02163601YS02164001 (33)
  Link YS02163301YS02001633 (33)
  Link YS02001619YS02001622 (33)
  Link YS02001629YS02163301 (33)
  
  
  *************************
  Routing Time Step Summary
  *************************
  Minimum Time Step           :     0.50 sec
  Average Time Step           :     1.11 sec
  Maximum Time Step           :     5.00 sec
  Percent in Steady State     :    -0.00
  Average Iterations per Step :     3.92
  Percent Not Converging      :    14.03
  
  
  ***************************
  Subcatchment Runoff Summary
  ***************************
  
  ------------------------------------------------------------------------------------------------------------------------------
                            Total      Total      Total      Total     Imperv       Perv      Total       Total     Peak  Runoff
                           Precip      Runon       Evap      Infil     Runoff     Runoff     Runoff      Runoff   Runoff   Coeff
  Subcatchment                 mm         mm         mm         mm         mm         mm         mm    10^6 ltr      LPS
  ------------------------------------------------------------------------------------------------------------------------------
  sub0                      23.84       0.00       0.00       0.77      22.12       0.90      23.02        0.02     5.06   0.966
  sub1                      23.84       0.00       0.00       1.33      21.12       1.29      22.41        0.15    33.98   0.940
  sub2                      23.84       0.00       0.00       5.60      14.93       3.22      18.15        0.17    32.49   0.761
  sub3                      23.84       0.00       0.00       5.94      14.89       2.88      17.77        0.40    70.76   0.745
  sub4                      23.84       0.00       0.00       1.46      20.95       1.16      22.11        0.46    81.55   0.928
  sub5                      23.84       0.00       0.00       0.82      22.07       0.85      22.92        0.26    59.56   0.962
  sub7                      23.84       0.00       0.00       1.03      21.63       1.11      22.74        0.08    19.22   0.954
  sub8                      23.84       0.00       0.00       1.05      21.62       1.10      22.72        0.15    35.26   0.953
  sub9                      23.84       0.00       0.00       1.05      21.62       1.10      22.71        0.11    26.33   0.953
  sub10                     23.84       0.00       0.00       0.94      21.84       0.97      22.81        0.25    58.74   0.957
  sub11                     23.84       0.00       0.00       0.92      21.86       0.99      22.85        0.27    65.28   0.959
  sub12                     23.84       0.00       0.00       1.50      20.69       1.60      22.29        0.19    51.10   0.935
  sub14                     23.84       0.00       0.00       1.05      21.61       1.09      22.71        0.22    51.81   0.953
  sub15                     23.84       0.00       0.00       4.05      16.62       3.10      19.72        0.34    74.01   0.827
  sub16                     23.84       0.00       0.00       4.23      15.93       3.63      19.56        0.20    48.29   0.821
  sub17                     23.84       0.00       0.00       4.13      16.17       3.50      19.67        0.17    39.49   0.825
  sub22                     23.84       0.00       0.00       6.08      13.55       4.17      17.72        1.12   235.47   0.743
  sub23                     23.84       0.00       0.00       5.01      14.97       3.81      18.78        0.90   197.86   0.788
  sub60                     23.84       0.00       0.00       2.13      18.82       0.73      19.55        5.93   667.30   0.820
  sub61                     23.84       0.00       0.00       3.01      18.52       1.04      19.56        6.03   717.95   0.821
  sub62                     23.84       0.00       0.00       1.25      20.31       0.65      20.96        6.44   751.14   0.880
  sub63                     23.84       0.00       0.00       5.57      16.04       1.34      17.38        5.26   638.31   0.729
  sub64                     23.84       0.00       0.00       2.78      18.11       0.79      18.90        5.75   644.78   0.793
  sub65                     23.84       0.00       0.00       2.36      18.46       0.74      19.20        5.90   658.64   0.806
  sub66                     23.84       0.00       0.00       5.92      15.37       0.99      16.36        5.02   574.80   0.686
  sub67                     23.84       0.00       0.00       1.18      20.92       0.73      21.65        6.68   814.16   0.908
  sub68                     23.84       0.00       0.00       2.35      19.35       0.99      20.34        6.25   750.28   0.853
  sub69                     23.84       0.00       0.00       2.36      19.61       1.21      20.83        4.87   655.18   0.874
  sub70                     23.84      21.26       0.00       9.95      28.09       5.22      33.30        7.62   861.91   0.738
  sub71                     23.84       0.00       0.00       1.29      20.01       0.62      20.63        4.87   557.88   0.866
  sub72                     23.84       0.00       0.00       1.26      17.48       0.41      17.89        3.64   352.81   0.750
  1                         23.84      32.43       0.00       1.37      34.56      12.51      47.07       11.06  1042.57   0.837
  2                         23.84       0.00       0.00       3.02       5.81       5.77      11.58        4.63   438.27   0.486
  
  
  ****************************
  Subcatchment Washoff Summary
  ****************************
  
  ------------------------------------------------------------------------------------------
                                 COD            SS            TN            TP         NH4-N
  Subcatchment                    kg            kg            kg            kg            kg
  ------------------------------------------------------------------------------------------
  sub0                         5.447        10.648         0.101         0.009         0.050
  sub1                        23.688        48.042         0.463         0.033         0.225
  sub2                        16.966        34.031         0.358         0.025         0.167
  sub3                        41.902        83.507         0.867         0.061         0.406
  sub4                        55.504       114.752         1.120         0.071         0.542
  sub5                        53.600       106.723         1.016         0.079         0.498
  sub7                        11.854        24.343         0.233         0.016         0.114
  sub8                        17.650        37.231         0.360         0.022         0.174
  sub9                        15.191        31.538         0.304         0.020         0.147
  sub10                       44.044        88.979         0.851         0.062         0.416
  sub11                       42.563        86.978         0.834         0.059         0.406
  sub12                       37.050        74.157         0.712         0.055         0.347
  sub14                       32.601        66.963         0.643         0.044         0.313
  sub15                       47.434        94.407         0.941         0.071         0.448
  sub16                       30.857        61.246         0.608         0.047         0.290
  sub17                       28.315        55.641         0.547         0.044         0.262
  sub22                      161.087       316.749         3.138         0.242         1.488
  sub23                       88.506       179.789         1.886         0.128         0.879
  sub60                      597.605      1177.766        11.858         0.760         5.721
  sub61                      735.660      1436.196        13.939         0.989         6.759
  sub62                      737.985      1463.009        14.530         0.959         7.028
  sub63                      558.710      1076.727        11.142         0.807         5.242
  sub64                      776.597      1477.973        14.527         1.087         6.999
  sub65                      790.465      1509.997        14.865         1.095         7.170
  sub66                      450.962       868.123         9.087         0.615         4.293
  sub67                     1073.899      2091.719        20.029         1.513         9.761
  sub68                      789.681      1552.112        15.327         1.072         7.390
  sub69                      691.072      1362.692        13.304         0.964         6.425
  sub70                     1288.654      2534.730        26.762         1.929        12.763
  sub71                      488.493       980.368         9.974         0.604         4.804
  sub72                      441.504       833.180         8.283         0.587         4.008
  1                         1052.298      2081.048        22.042         1.588        10.427
  2                          118.381       219.864         3.138         0.193         1.360
  ------------------------------------------------------------------------------------------
  System                   11346.226     22181.229       223.788        15.848       107.320
  
  
  ******************
  Node Depth Summary
  ******************
  
  ---------------------------------------------------------------------------------
                                 Average  Maximum  Maximum  Time of Max    Reported
                                   Depth    Depth      HGL   Occurrence   Max Depth
  Node                 Type       Meters   Meters   Meters  days hr:min      Meters
  ---------------------------------------------------------------------------------
  WS02001211           JUNCTION     0.65     0.84     5.68     0  01:42        0.84
  WS02001212           JUNCTION     0.39     0.58     5.64     0  01:41        0.58
  WS02001213           JUNCTION     0.64     0.86     5.62     0  01:41        0.86
  WS02003069           JUNCTION     0.48     0.73     5.31     0  01:43        0.73
  WS02003072           JUNCTION     0.55     0.77     5.14     0  01:43        0.77
  WS02003073           JUNCTION     0.33     0.49     4.55     0  01:44        0.49
  WS02003060           JUNCTION     0.43     0.64     5.58     0  01:42        0.64
  WS02003066           JUNCTION     0.27     0.40     5.95     0  01:39        0.40
  WS02003059           JUNCTION     0.70     0.91     5.60     0  01:42        0.91
  WS02003067           JUNCTION     0.64     0.83     6.15     0  01:32        0.83
  WS02004401           JUNCTION     0.80     1.52     7.52     0  01:28        1.52
  WS02004402           JUNCTION     0.83     1.50     7.46     0  01:29        1.49
  WS02004403           JUNCTION     0.84     1.47     7.40     0  01:29        1.43
  WS02004404           JUNCTION     0.91     1.50     7.35     0  01:29        1.45
  WS02004406           JUNCTION     0.90     1.31     7.14     0  01:29        1.29
  WS02004409           JUNCTION     0.60     1.04     6.81     0  01:31        1.03
  WS02004410           JUNCTION     0.62     1.00     6.72     0  01:32        1.00
  WS02004411           JUNCTION     0.62     0.97     6.65     0  01:32        0.97
  WS02004412           JUNCTION     0.63     0.94     6.58     0  01:32        0.93
  WS02004413           JUNCTION     0.78     1.05     6.52     0  01:32        1.04
  WS02004405           JUNCTION     0.90     1.45     7.30     0  01:29        1.40
  WS02006109           JUNCTION     0.93     1.94     8.56     0  01:30        1.93
  WS02006110           JUNCTION     0.88     1.89     8.47     0  01:28        1.70
  WS02006111           JUNCTION     0.32     1.34     8.05     0  01:28        1.11
  WS02006112           JUNCTION     1.00     1.96     7.84     0  01:28        1.82
  WS02006113           JUNCTION     0.44     1.54     8.44     0  01:28        1.14
  WS02006115           JUNCTION     0.71     1.58     7.72     0  01:28        1.51
  WS02006116           JUNCTION     0.78     1.58     7.62     0  01:28        1.56
  WS02006230           JUNCTION     0.98     2.17     8.92     0  01:30        2.16
  WS02006231           JUNCTION     0.71     1.79     8.91     0  01:30        1.76
  WS02006232           JUNCTION     0.85     1.86     8.90     0  01:30        1.82
  WS02006234           JUNCTION     0.80     1.72     8.88     0  01:30        1.67
  WS02006235           JUNCTION     0.84     1.70     8.87     0  01:30        1.65
  WS02006238           JUNCTION     0.87     1.72     8.86     0  01:30        1.66
  WS02006240           JUNCTION     0.76     1.52     8.82     0  01:30        1.47
  WS02006242           JUNCTION     0.81     1.52     8.79     0  01:30        1.48
  WS02006243           JUNCTION     0.68     1.43     8.85     0  01:26        1.31
  WS02006245           JUNCTION     0.65     1.32     8.81     0  01:26        1.23
  WS02006247           JUNCTION     0.65     1.39     8.89     0  01:26        1.20
  WS02006248           JUNCTION     0.59     1.10     8.69     0  01:26        1.10
  WS02006249           JUNCTION     0.60     1.09     8.69     0  01:26        1.09
  WS02006239           JUNCTION     0.82     1.63     8.84     0  01:30        1.57
  WS02006251           JUNCTION     0.58     1.85     9.52     0  01:27        1.18
  WS02006252           JUNCTION     0.36     1.46     9.70     0  01:27        0.71
  WS02006253           JUNCTION     0.60     2.18     9.82     0  01:27        1.18
  WS02006256           JUNCTION     2.01     2.35     9.28     0  00:00        2.35
  WS02004138           JUNCTION     0.14     0.19     7.44     0  01:40        0.19
  WS02004139           JUNCTION     0.59     0.78     5.69     0  01:41        0.78
  WS02004407           JUNCTION     0.27     0.42     6.73     0  01:35        0.42
  WS02006228           JUNCTION     0.96     2.14     8.80     0  01:30        2.13
  WS02006229           JUNCTION     0.96     2.27     8.96     0  01:30        2.21
  WS02006280           JUNCTION     0.09     0.53     8.80     0  01:30        0.48
  WS02006284           JUNCTION     0.39     0.71     9.11     0  01:35        0.71
  WS02006287           JUNCTION     0.12     0.46     9.42     0  01:35        0.46
  WSF200               JUNCTION     0.27     0.45     5.68     0  01:39        0.45
  HS02004901           JUNCTION     0.14     0.43    10.25     0  01:33        0.43
  HS02004881           JUNCTION     0.01     0.07     9.10     0  01:27        0.06
  HS02004876           JUNCTION     0.05     0.19     9.22     0  01:34        0.19
  HS02004870           JUNCTION     0.02     0.11     9.40     0  01:35        0.11
  HS02004862           JUNCTION     0.03     0.13     9.51     0  01:35        0.13
  HS02004856           JUNCTION     0.09     0.17     9.59     0  01:35        0.17
  HS02004852           JUNCTION     0.02     0.10     9.61     0  01:35        0.10
  HS02004848           JUNCTION     0.02     0.08     9.68     0  01:36        0.08
  HS02004842           JUNCTION     0.34     0.41     9.68     0  01:35        0.41
  HS02004837           JUNCTION     0.03     0.10     9.68     0  01:35        0.10
  HS02004830           JUNCTION     0.05     0.15     9.62     0  01:35        0.15
  HS02004824           JUNCTION     0.03     0.20     9.61     0  01:35        0.20
  HS02004817           JUNCTION     0.46     0.77     9.61     0  01:35        0.76
  HS02004807           JUNCTION     0.15     0.44     9.61     0  01:35        0.44
  HS02004802           JUNCTION     0.18     0.47     9.60     0  01:35        0.47
  HS02004799           JUNCTION     0.15     0.55     9.76     0  01:33        0.55
  HS02004792           JUNCTION     0.05     0.27     9.79     0  01:33        0.27
  HS02004788           JUNCTION     0.04     0.19    10.09     0  01:34        0.19
  HS02004785           JUNCTION     0.06     0.29    10.19     0  01:33        0.29
  HS02004777           JUNCTION     0.17     0.44    10.24     0  01:33        0.44
  HS02004770           JUNCTION     0.14     0.42    10.25     0  01:33        0.42
  HS02004480           JUNCTION     0.10     0.46     9.70     0  01:33        0.46
  HS02004479           JUNCTION     0.14     0.49     9.70     0  01:34        0.49
  HS02004478           JUNCTION     0.08     0.35     9.58     0  01:35        0.35
  YS02001745           JUNCTION     0.82     1.32     8.83     0  01:29        1.05
  YS02001748           JUNCTION     1.23     1.70     8.78     0  01:29        1.47
  YS02001751           JUNCTION     1.41     1.82     8.70     0  01:29        1.64
  YS02001754           JUNCTION     1.67     1.99     8.60     0  01:29        1.89
  YS02001762           JUNCTION     1.87     2.11     8.51     0  01:29        2.07
  YS02001765           JUNCTION     1.82     2.04     8.49     0  01:29        2.02
  YS02001767           JUNCTION     1.78     1.98     8.47     0  01:29        1.98
  YS02001770           JUNCTION     1.78     1.95     8.44     0  02:14        1.95
  YS02001774           JUNCTION     1.84     2.00     8.42     0  02:31        1.99
  YS02001779           JUNCTION     1.58     1.68     8.37     0  01:26        1.68
  YS02001882           JUNCTION     0.75     1.65     8.36     0  01:33        1.64
  YS02001884           JUNCTION     0.85     1.75     8.36     0  01:55        1.74
  YS02001759           JUNCTION     1.90     2.14     8.51     0  01:29        2.12
  YS02001887           JUNCTION     0.93     1.82     8.36     0  01:59        1.82
  YS02001890           JUNCTION     0.95     1.81     8.32     0  01:33        1.81
  YS02001898           JUNCTION     0.72     1.56     8.30     0  01:57        1.56
  YS02001901           JUNCTION     0.84     1.68     8.29     0  01:33        1.68
  YS02001904           JUNCTION     0.81     1.64     8.27     0  01:34        1.63
  YS02001907           JUNCTION     1.14     1.96     8.25     0  01:33        1.96
  YS02001910           JUNCTION     0.94     1.86     8.37     0  01:34        1.80
  YS02001915           JUNCTION     0.74     1.73     8.45     0  01:34        1.63
  YS02001918           JUNCTION     0.47     1.56     8.62     0  01:34        1.34
  YS02001619           JUNCTION     1.36     1.61     8.54     0  01:27        1.50
  YS02001629           JUNCTION     1.72     1.85     8.40     0  01:27        1.85
  YS02001641           JUNCTION     1.81     1.94     8.38     0  01:29        1.93
  YS02001644           JUNCTION     1.81     1.92     8.35     0  01:29        1.92
  YS02001652           JUNCTION     1.68     2.03     8.62     0  04:35        1.94
  YS02001655           JUNCTION     1.44     1.99     8.84     0  04:35        1.82
  YS02001920           JUNCTION     0.58     1.69     8.70     0  01:34        1.43
  YS02001923           JUNCTION     0.39     1.49     8.75     0  01:34        1.21
  YS02001926           JUNCTION     0.41     1.34     8.78     0  01:34        1.03
  YS02001929           JUNCTION     0.26     1.03     8.73     0  01:34        0.81
  YS02001658           JUNCTION     1.16     1.91     9.05     0  04:35        1.68
  YS02001661           JUNCTION     0.92     1.87     9.27     0  04:30        1.59
  YS02001664           JUNCTION     0.43     0.71     8.63     0  01:30        0.70
  YS02001622           JUNCTION     1.38     1.62     8.52     0  01:27        1.51
  YS02001633           JUNCTION     1.81     1.96     8.41     0  01:29        1.94
  YS02001649           JUNCTION     1.87     2.05     8.44     0  01:29        2.05
  YS02001757           JUNCTION     2.00     2.21     8.47     0  01:29        2.21
  YS02001895           JUNCTION     0.71     1.57     8.32     0  01:33        1.56
  YS02001625           JUNCTION     1.67     1.78     8.38     0  01:27        1.78
  YS02163301           JUNCTION     1.75     1.90     8.42     0  01:27        1.88
  YS02163601           JUNCTION     1.86     2.00     8.39     0  01:29        1.98
  YS02164001           JUNCTION     1.80     1.93     8.39     0  01:29        1.91
  YS02001647           JUNCTION     1.65     1.80     8.41     0  01:40        1.79
  YSB1154              JUNCTION     0.28     0.65     9.70     0  01:33        0.65
  YSB6556              JUNCTION     0.17     0.53     9.70     0  01:33        0.53
  YSB1174              JUNCTION     0.23     0.59     9.70     0  01:33        0.59
  YSB1171              JUNCTION     0.43     0.80     9.70     0  01:34        0.80
  YS02006553           JUNCTION     1.14     1.99     8.28     0  01:41        1.98
  YS02006561           JUNCTION     0.46     1.10     7.76     0  01:50        1.09
  YS02006556           JUNCTION     1.11     2.00     8.31     0  01:41        1.98
  YS02006558           JUNCTION     1.15     2.05     8.32     0  01:41        2.03
  YS02001783           JUNCTION     0.72     1.49     7.63     0  01:57        1.48
  YS02001784           JUNCTION     0.72     1.43     7.50     0  01:47        1.42
  YS02001786           JUNCTION     0.64     1.27     7.30     0  01:46        1.26
  YS02001788           JUNCTION     0.55     1.14     7.12     0  01:51        1.14
  YS02001790           JUNCTION     0.67     1.40     7.05     0  06:25        1.29
  YS02001791           JUNCTION     0.62     1.52     6.99     0  06:23        1.27
  YS02001793           JUNCTION     0.85     1.80     6.64     0  01:50        1.80
  WSC                  OUTFALL      0.33     0.49     1.16     0  01:45        0.49
  JK-storage           STORAGE      3.06     5.80     6.60     0  01:43        5.80
  CC-storage           STORAGE      1.25     1.48     8.48     0  02:53        1.48
  XR-storage           STORAGE      7.60     7.72     5.72     0  01:28        7.72
  
  
  *******************
  Node Inflow Summary
  *******************
  
  -------------------------------------------------------------------------------------------------
                                  Maximum  Maximum                  Lateral       Total        Flow
                                  Lateral    Total  Time of Max      Inflow      Inflow     Balance
                                   Inflow   Inflow   Occurrence      Volume      Volume       Error
  Node                 Type           LPS      LPS  days hr:min    10^6 ltr    10^6 ltr     Percent
  -------------------------------------------------------------------------------------------------
  WS02001211           JUNCTION      7.35   380.04     0  01:40       0.207        5.93       0.673
  WS02001212           JUNCTION      0.00   371.41     0  01:41           0        5.89       0.335
  WS02001213           JUNCTION      0.00   369.19     0  01:42           0        5.88       0.472
  WS02003069           JUNCTION      0.32  1362.63     0  01:42     0.00902          19       0.202
  WS02003072           JUNCTION      0.00  1362.02     0  01:43           0        18.9       0.235
  WS02003073           JUNCTION      1.82  1364.21     0  01:44      0.0514          19       0.273
  WS02003060           JUNCTION     16.53  1362.84     0  01:42       0.466          19       0.190
  WS02003066           JUNCTION      0.00   998.42     0  01:32           0        12.8       0.047
  WS02003059           JUNCTION      0.00   368.81     0  01:43           0        5.86       0.734
  WS02003067           JUNCTION      0.00   993.37     0  01:32           0        12.8       0.089
  WS02004401           JUNCTION      0.00  1018.01     0  01:30           0        13.1       0.203
  WS02004402           JUNCTION      0.00  1018.70     0  01:30           0          13       0.187
  WS02004403           JUNCTION      0.00  1017.68     0  01:30           0          13       0.166
  WS02004404           JUNCTION      0.16  1017.07     0  01:30     0.00457          13       0.120
  WS02004406           JUNCTION      0.00  1019.93     0  01:30           0          13       0.292
  WS02004409           JUNCTION      0.00  1016.17     0  01:31           0        12.9       0.182
  WS02004410           JUNCTION      0.00  1006.45     0  01:31           0        12.9       0.197
  WS02004411           JUNCTION      0.00   991.99     0  01:35           0        12.9       0.196
  WS02004412           JUNCTION      0.00   991.61     0  01:35           0        12.8       0.205
  WS02004413           JUNCTION      0.00   993.24     0  01:32           0        12.8       0.288
  WS02004405           JUNCTION      0.04  1017.71     0  01:30     0.00107          13       0.181
  WS02006109           JUNCTION      1.23   978.87     0  01:28      0.0347          13       0.148
  WS02006110           JUNCTION      0.00   979.03     0  01:28           0          13       0.174
  WS02006111           JUNCTION      0.00   978.99     0  01:30           0          13       0.046
  WS02006112           JUNCTION     39.49  1018.47     0  01:30       0.169        13.1       0.245
  WS02006113           JUNCTION      0.00   979.04     0  01:28           0          13       0.106
  WS02006115           JUNCTION      0.00  1018.26     0  01:30           0        13.1       0.205
  WS02006116           JUNCTION      0.00  1018.02     0  01:30           0        13.1       0.191
  WS02006230           JUNCTION     10.28   542.78     0  04:42        0.29        8.52       0.227
  WS02006231           JUNCTION      0.00   532.01     0  04:42           0        8.23       0.170
  WS02006232           JUNCTION      0.00   532.10     0  04:42           0        8.24       0.221
  WS02006234           JUNCTION      0.00   530.98     0  04:42           0        8.25       0.131
  WS02006235           JUNCTION      0.00   530.36     0  04:41           0        8.44       0.139
  WS02006238           JUNCTION      0.00   412.74     0  04:40           0        4.27       0.219
  WS02006240           JUNCTION      0.00   412.76     0  04:40           0        4.24       0.368
  WS02006242           JUNCTION      0.00   413.04     0  04:40           0        4.23       0.447
  WS02006243           JUNCTION      0.00   412.88     0  04:40           0        4.23       0.336
  WS02006245           JUNCTION      0.00   412.81     0  04:40           0        4.24       0.333
  WS02006247           JUNCTION      0.00   412.79     0  04:40           0        4.24       0.276
  WS02006248           JUNCTION      0.00   413.56     0  04:40           0        4.34       0.205
  WS02006249           JUNCTION      0.00   469.98     0  03:10           0        5.21       0.303
  WS02006239           JUNCTION      0.00   412.96     0  04:40           0        4.25       0.325
  WS02006251           JUNCTION      0.08   469.31     0  03:10     0.00217        5.29       0.344
  WS02006252           JUNCTION      0.00   400.00     0  04:40           0        4.32       0.014
  WS02006253           JUNCTION      5.06   361.18     0  01:27      0.0186       0.979       1.461
  WS02006256           JUNCTION      0.00   983.00     0  02:30           0        11.9      -0.007
  WS02004138           JUNCTION      0.00   379.99     0  07:10           0        5.76       0.067
  WS02004139           JUNCTION      0.32   379.04     0  01:40     0.00905        5.76       0.665
  WS02004407           JUNCTION      0.00  1021.63     0  01:30           0        12.9       0.081
  WS02006228           JUNCTION      0.00   978.28     0  01:28           0          13       0.126
  WS02006229           JUNCTION      0.00  1091.79     0  01:30           0          13       0.123
  WS02006280           JUNCTION      0.00   935.01     0  01:35           0        4.56       0.010
  WS02006284           JUNCTION      0.10   934.88     0  01:35      0.0027        4.56       0.013
  WS02006287           JUNCTION      0.00   934.69     0  01:35           0        4.56       0.019
  WSF200               JUNCTION      0.00  1000.89     0  01:32           0        12.7       0.051
  HS02004901           JUNCTION     48.29    48.29     0  01:31       0.205       0.205       0.868
  HS02004881           JUNCTION     19.22   195.12     0  01:34      0.0766       0.897       0.058
  HS02004876           JUNCTION     33.98   176.89     0  01:34       0.149       0.821       0.067
  HS02004870           JUNCTION     35.26   143.34     0  01:34       0.145       0.672       0.017
  HS02004862           JUNCTION     32.69   109.55     0  01:35       0.175       0.527       0.033
  HS02004856           JUNCTION     26.33    76.91     0  01:35       0.109       0.354       0.409
  HS02004852           JUNCTION      0.00    51.63     0  01:36           0       0.245       0.025
  HS02004848           JUNCTION     70.76    70.76     0  01:38         0.4         0.4       0.014
  HS02004842           JUNCTION      0.00    21.86     0  01:49           0       0.168       8.372
  HS02004837           JUNCTION     65.09    82.02     0  01:35       0.431       0.586       0.139
  HS02004830           JUNCTION      0.15    82.12     0  01:35     0.00423       0.576       0.215
  HS02004824           JUNCTION     81.60   164.06     0  01:39       0.463        1.04       0.053
  HS02004817           JUNCTION      0.60   166.59     0  01:39      0.0169        1.05       1.606
  HS02004807           JUNCTION     65.28   225.35     0  01:36       0.265         1.3       0.343
  HS02004802           JUNCTION      0.00   226.36     0  01:37           0         1.3       0.298
  HS02004799           JUNCTION     51.81   605.47     0  01:33       0.216        2.82       0.117
  HS02004792           JUNCTION    235.75   554.35     0  01:33        1.13        2.61       0.016
  HS02004788           JUNCTION     75.68   319.94     0  01:33       0.386        1.48       0.027
  HS02004785           JUNCTION      0.15   244.47     0  01:33     0.00423         1.1       0.047
  HS02004777           JUNCTION      0.03   244.67     0  01:32    0.000846         1.1       0.479
  HS02004770           JUNCTION    197.86   245.54     0  01:32       0.896         1.1       0.280
  HS02004480           JUNCTION      0.00   713.04     0  01:33           0        3.27       0.023
  HS02004479           JUNCTION      0.00   107.72     0  01:33           0       0.464       0.161
  HS02004478           JUNCTION      0.00   934.60     0  01:34           0        4.56       0.006
  YS02001745           JUNCTION    667.30   667.30     0  03:01        5.93        5.93       0.184
  YS02001748           JUNCTION      0.04   667.44     0  03:01     0.00127        5.92       0.384
  YS02001751           JUNCTION      0.01   667.62     0  03:01     0.00031         5.9       0.406
  YS02001754           JUNCTION      0.26   668.05     0  03:01     0.00733        5.89       0.418
  YS02001762           JUNCTION      0.00   372.25     0  01:28           0        3.35       0.636
  YS02001765           JUNCTION      0.00   366.70     0  01:28           0        3.35       0.732
  YS02001767           JUNCTION      0.54   363.23     0  03:01      0.0151        3.37       1.067
  YS02001770           JUNCTION    751.30  1114.42     0  03:01        6.45        8.39       0.372
  YS02001774           JUNCTION      0.00   852.14     0  02:56           0        6.55       0.382
  YS02001779           JUNCTION      0.01   851.74     0  02:30    0.000141        6.52       0.240
  YS02001882           JUNCTION      0.00    32.75     0  01:30           0      0.0364       8.262
  YS02001884           JUNCTION      0.00    65.04     0  01:29           0      0.0741       9.678
  YS02001759           JUNCTION    717.99   901.59     0  01:44        6.03        7.41       0.308
  YS02001887           JUNCTION    814.61   815.59     0  01:56        6.69        6.72       0.130
  YS02001890           JUNCTION      0.00   815.93     0  01:58           0        6.67       0.151
  YS02001898           JUNCTION      0.00   602.02     0  01:33           0        5.39       0.040
  YS02001901           JUNCTION      0.00   603.25     0  01:33           0        5.39       0.155
  YS02001904           JUNCTION      0.00   602.54     0  01:33           0        5.38       0.133
  YS02001907           JUNCTION      0.00  1427.82     0  03:01           0          14       0.181
  YS02001910           JUNCTION      0.00   911.23     0  03:01           0        8.58       0.135
  YS02001915           JUNCTION    557.90   911.12     0  03:01        4.87        8.64       0.085
  YS02001918           JUNCTION      0.00   384.23     0  01:35           0         3.8       0.050
  YS02001619           JUNCTION    574.80   574.80     0  03:01        5.02        5.02       0.241
  YS02001629           JUNCTION      0.00   284.23     0  01:26           0        2.08       1.368
  YS02001641           JUNCTION      0.00   459.33     0  01:28           0        6.13       0.347
  YS02001644           JUNCTION    644.82  1924.44     0  03:01        5.75        19.5       0.137
  YS02001652           JUNCTION      0.00   639.62     0  03:01           0        5.22       0.438
  YS02001655           JUNCTION      0.15   639.42     0  03:01     0.00434        5.24       0.489
  YS02001920           JUNCTION      2.87   383.51     0  01:35      0.0809        3.78       0.085
  YS02001923           JUNCTION      0.04   355.21     0  03:01     0.00106        3.68       0.038
  YS02001926           JUNCTION      0.05   352.71     0  03:01     0.00147        3.66       0.086
  YS02001929           JUNCTION    352.81   352.81     0  03:01        3.64        3.64       0.018
  YS02001658           JUNCTION      0.00   639.00     0  03:01           0        5.26       0.463
  YS02001661           JUNCTION      0.00   790.71     0  01:37           0        5.64      -0.048
  YS02001664           JUNCTION    638.31   638.31     0  03:01        5.26        5.65       0.101
  YS02001622           JUNCTION      0.00   574.86     0  03:01           0        5.01       0.638
  YS02001633           JUNCTION    658.84   658.84     0  03:01        5.91        7.07       0.453
  YS02001649           JUNCTION      0.00  1447.56     0  03:01           0        11.1       0.334
  YS02001757           JUNCTION      0.00  2188.94     0  01:43           0        13.3       0.689
  YS02001895           JUNCTION      0.00   600.81     0  01:33           0        5.39       0.126
  YS02001625           JUNCTION      0.00   801.49     0  03:01           0        5.86       0.686
  YS02163301           JUNCTION      0.00   282.60     0  01:26           0        2.09       1.163
  YS02163601           JUNCTION      0.11   460.42     0  01:28      0.0031        6.14       0.488
  YS02164001           JUNCTION      0.00   461.00     0  01:28           0        6.12       0.328
  YS02001647           JUNCTION      0.00   846.70     0  03:21           0         8.6       0.332
  YSB1154              JUNCTION     59.56    59.56     0  01:33        0.26        0.26       0.557
  YSB6556              JUNCTION      0.00    59.43     0  01:33           0       0.261       0.488
  YSB1174              JUNCTION     51.10    51.10     0  01:30       0.195       0.195       0.659
  YSB1171              JUNCTION      0.00   108.25     0  01:32           0       0.462       1.394
  YS02006553           JUNCTION      0.00   701.49     0  03:52           0        7.62       0.211
  YS02006561           JUNCTION      0.00  1150.28     0  01:40           0        13.8       0.006
  YS02006556           JUNCTION      0.00   701.71     0  03:51           0        7.63       0.157
  YS02006558           JUNCTION    751.16  1151.13     0  01:39        6.28        13.9       0.041
  YS02001783           JUNCTION      0.00  1150.38     0  01:40           0        13.8       0.020
  YS02001784           JUNCTION      1.06  1151.55     0  01:40      0.0299        13.9       0.030
  YS02001786           JUNCTION      0.06  1151.40     0  01:40     0.00159        13.9       0.030
  YS02001788           JUNCTION      0.07  1151.37     0  01:40       0.002        13.9       0.018
  YS02001790           JUNCTION      0.15  1165.26     0  01:35     0.00437        13.9       0.021
  YS02001791           JUNCTION      0.00  1271.02     0  01:36           0        13.9       0.005
  YS02001793           JUNCTION      0.00  1236.87     0  01:36           0        13.9      -0.001
  WSC                  OUTFALL       0.00  1364.70     0  01:45           0        18.9       0.000
  JK-storage           STORAGE       0.00  1218.29     0  01:34           0          14      -3.888
  CC-storage           STORAGE       0.00  2188.88     0  01:43           0        8.17       0.779
  XR-storage           STORAGE    1680.85  1680.85     0  03:01        21.3        21.9      -0.001
  
  
  **********************
  Node Surcharge Summary
  **********************
  
  Surcharging occurs when water rises above the top of the highest conduit.
  ---------------------------------------------------------------------
                                               Max. Height   Min. Depth
                                   Hours       Above Crown    Below Rim
  Node                 Type      Surcharged         Meters       Meters
  ---------------------------------------------------------------------
  WS02004401           JUNCTION        1.85          0.523        1.137
  WS02004402           JUNCTION        1.86          0.504        1.236
  WS02004403           JUNCTION        1.87          0.470        1.560
  WS02004404           JUNCTION        1.93          0.496        2.284
  WS02004406           JUNCTION        1.91          0.310        2.140
  WS02004409           JUNCTION        0.19          0.038        2.322
  WS02004413           JUNCTION        0.89          0.048        2.152
  WS02004405           JUNCTION        1.92          0.448        2.352
  WS02006109           JUNCTION        5.08          1.120        0.700
  WS02006110           JUNCTION        2.56          0.976        0.874
  WS02006111           JUNCTION        0.71          0.529        1.341
  WS02006112           JUNCTION        3.04          0.956        0.724
  WS02006113           JUNCTION        0.78          0.742        1.188
  WS02006115           JUNCTION        1.77          0.568        1.682
  WS02006116           JUNCTION        1.79          0.521        1.769
  WS02006230           JUNCTION        2.34          1.093        0.477
  WS02006231           JUNCTION        2.96          1.077        0.453
  WS02006232           JUNCTION        5.09          1.159        0.321
  WS02006234           JUNCTION        4.15          1.002        0.238
  WS02006235           JUNCTION        4.69          0.991        0.299
  WS02006238           JUNCTION        4.83          0.997        0.433
  WS02006240           JUNCTION        3.74          0.815        0.575
  WS02006242           JUNCTION        4.00          0.790        0.030
  WS02006243           JUNCTION        3.32          0.716        0.054
  WS02006245           JUNCTION        3.12          0.611        0.239
  WS02006247           JUNCTION        3.13          0.678        0.082
  WS02006248           JUNCTION        2.86          0.380        0.000
  WS02006249           JUNCTION        2.95          0.390        0.000
  WS02006239           JUNCTION        4.15          0.890        0.400
  WS02006251           JUNCTION        1.92          0.820        0.360
  WS02006252           JUNCTION        2.98          1.061        0.039
  WS02006253           JUNCTION        1.99          1.135        1.345
  WS02006256           JUNCTION        7.52          2.050        0.000
  WS02006228           JUNCTION        5.03          1.315        0.885
  WS02006229           JUNCTION        0.01          0.087        0.983
  HS02004817           JUNCTION        0.46          0.066        1.674
  YS02001745           JUNCTION        0.88          0.316        1.034
  YS02001748           JUNCTION        6.35          0.623        0.567
  YS02001751           JUNCTION        6.36          0.821        0.379
  YS02001754           JUNCTION        6.38          0.938        0.212
  YS02001762           JUNCTION        6.40          1.107        0.043
  YS02001765           JUNCTION        6.40          1.045        0.055
  YS02001767           JUNCTION        6.39          0.980        0.050
  YS02001770           JUNCTION        6.39          0.920        0.000
  YS02001774           JUNCTION        6.40          1.001        0.049
  YS02001779           JUNCTION        6.37          0.680        0.000
  YS02001882           JUNCTION        2.66          0.648        0.182
  YS02001884           JUNCTION        2.69          0.687        0.183
  YS02001759           JUNCTION        6.41          1.144        0.066
  YS02001887           JUNCTION        2.77          0.775        0.175
  YS02001890           JUNCTION        2.79          0.760        0.000
  YS02001898           JUNCTION        2.62          0.532        0.208
  YS02001901           JUNCTION        2.73          0.677        0.193
  YS02001904           JUNCTION        2.71          0.637        0.213
  YS02001907           JUNCTION        3.13          0.950        0.000
  YS02001910           JUNCTION        2.83          0.862        0.238
  YS02001915           JUNCTION        2.65          0.735        0.265
  YS02001918           JUNCTION        2.43          0.559        0.251
  YS02001619           JUNCTION        6.37          0.610        0.000
  YS02001629           JUNCTION        6.37          0.470        0.000
  YS02001641           JUNCTION        6.40          0.942        0.158
  YS02001644           JUNCTION        6.40          0.920        0.000
  YS02001652           JUNCTION        6.38          0.996        0.134
  YS02001655           JUNCTION        6.37          0.989        0.211
  YS02001920           JUNCTION        2.47          0.689        0.451
  YS02001923           JUNCTION        0.01          0.276        0.544
  YS02001926           JUNCTION        0.01          0.338        0.562
  YS02001929           JUNCTION        0.01          0.034        0.746
  YS02001658           JUNCTION        6.35          0.908        0.392
  YS02001661           JUNCTION        1.46          0.801        0.589
  YS02001622           JUNCTION        6.37          0.620        0.000
  YS02001633           JUNCTION        6.40          0.940        0.120
  YS02001649           JUNCTION        6.40          1.050        0.000
  YS02001757           JUNCTION        6.42          1.210        0.000
  YS02001895           JUNCTION        2.63          0.568        0.182
  YS02001625           JUNCTION        6.38          0.780        0.000
  YS02163301           JUNCTION        6.39          0.903        0.127
  YS02163601           JUNCTION        6.40          0.996        0.084
  YS02164001           JUNCTION        6.40          0.933        0.167
  YS02001647           JUNCTION        6.38          0.801        0.099
  YS02006553           JUNCTION        3.18          0.992        0.198
  YS02006561           JUNCTION        2.51          0.299        0.851
  YS02006556           JUNCTION        2.99          0.956        0.394
  YS02006558           JUNCTION        2.96          0.952        0.448
  YS02001783           JUNCTION        2.98          0.686        0.914
  YS02001784           JUNCTION        2.99          0.630        0.860
  YS02001786           JUNCTION        2.93          0.470        0.960
  YS02001788           JUNCTION        2.77          0.343        1.137
  YS02001790           JUNCTION        3.14          0.602        0.555
  YS02001791           JUNCTION        3.22          0.721        1.199
  YS02001793           JUNCTION        3.47          0.805        1.795
  
  
  *********************
  Node Flooding Summary
  *********************
  
  Flooding refers to all water that overflows a node, whether it ponds or not.
  --------------------------------------------------------------------------
                                                             Total   Maximum
                                 Maximum   Time of Max       Flood    Ponded
                        Hours       Rate    Occurrence      Volume     Depth
  Node                 Flooded       LPS   days hr:min    10^6 ltr    Meters
  --------------------------------------------------------------------------
  WS02006248              0.49    207.32      0  01:35       0.208     0.000
  WS02006249              1.87    335.16      0  01:36       0.961     0.000
  WS02006256              5.13    834.08      0  01:40       7.550     0.000
  YS02001770              0.96    263.04      0  03:01       0.403     0.000
  YS02001779              4.34    851.46      0  02:31       6.500     0.000
  YS02001890              1.73    299.68      0  01:57       1.273     0.000
  YS02001907              2.29   1203.08      0  03:01       6.322     0.000
  YS02001619              0.01     21.24      0  01:27       0.000     0.000
  YS02001629              0.01    185.81      0  01:27       0.002     0.000
  YS02001644              5.95   1924.30      0  03:01      18.491     0.000
  YS02001622              0.01    108.02      0  01:27       0.000     0.000
  YS02001649              1.38    600.84      0  03:01       1.527     0.000
  YS02001757              0.21    170.54      0  02:58       0.076     0.000
  YS02001625              3.01    801.39      0  03:01       4.635     0.000
  JK-storage              2.09    803.36      0  04:10       2.675     0.000
  XR-storage              6.36   1661.90      0  03:01      15.243     0.000
  
  
  **********************
  Storage Volume Summary
  **********************
  
  --------------------------------------------------------------------------------------------------
                         Average     Avg  Evap Exfil       Maximum     Max    Time of Max    Maximum
                          Volume    Pcnt  Pcnt  Pcnt        Volume    Pcnt     Occurrence    Outflow
  Storage Unit           1000 m3    Full  Loss  Loss       1000 m3    Full    days hr:min        LPS
  --------------------------------------------------------------------------------------------------
  JK-storage               0.154      53     0     0         0.291     100       0  01:43     983.00
  CC-storage               3.476      22     0     0         4.119      26       0  02:53     400.00
  XR-storage               0.912      98     0     0         0.926     100       0  01:28     379.99
  
  
  ***********************
  Outfall Loading Summary
  ***********************
  
  ---------------------------------------------------------------------------------------------------------------------------------
                         Flow       Avg       Max       Total         Total         Total         Total         Total         Total
                         Freq      Flow      Flow      Volume           COD            SS            TN            TP         NH4-N
  Outfall Node           Pcnt       LPS       LPS    10^6 ltr            kg            kg            kg            kg            kg
  ---------------------------------------------------------------------------------------------------------------------------------
  WSC                   99.99    696.69   1364.70      18.900      2317.078      4305.280        98.597        10.572        56.875
  ---------------------------------------------------------------------------------------------------------------------------------
  System                99.99    696.69   1364.70      18.900      2317.078      4305.280        98.597        10.572        56.875
  
  
  ********************
  Link Flow Summary
  ********************
  
  -----------------------------------------------------------------------------
                                 Maximum  Time of Max   Maximum    Max/    Max/
                                  |Flow|   Occurrence   |Veloc|    Full    Full
  Link                 Type          LPS  days hr:min     m/sec    Flow   Depth
  -----------------------------------------------------------------------------
  WS02003066WSF200     CONDUIT   1000.89     0  01:32      3.30    0.17    0.33
  WS02006287WS02006284 CONDUIT    934.78     0  01:35      2.63    0.43    0.46
  WS02006284WS02006280 CONDUIT    935.01     0  01:35      2.85    0.39    0.45
  WS02006280WS02006229 CONDUIT   1008.99     0  01:31      4.19    0.22    0.75
  WS02006229WS02006228 CONDUIT    978.28     0  01:28      1.95    3.24    1.00
  WS02006256WS02006235 CONDUIT    288.92     0  00:00      4.23    3.06    1.00
  WS02006253WS02006251 CONDUIT    223.94     0  01:27      0.67    0.67    1.00
  WS02006252WS02006251 CONDUIT    401.01     0  07:42      3.19    1.47    1.00
  WS02006251WS02006249 CONDUIT    469.98     0  03:10      1.22    1.36    1.00
  WS02006249WS02006248 CONDUIT    413.56     0  04:40      1.10    2.27    1.00
  WS02006248WS02006247 CONDUIT    412.79     0  04:40      1.07    0.90    1.00
  WS02006247WS02006245 CONDUIT    412.81     0  04:40      1.07    3.27    1.00
  WS02006245WS02006243 CONDUIT    412.88     0  04:40      1.07    1.22    1.00
  WS02006243WS02006242 CONDUIT    413.04     0  04:40      1.07    0.88    1.00
  WS02006242WS02006240 CONDUIT    412.76     0  04:40      1.07    1.64    1.00
  WS02006240WS02006239 CONDUIT    412.96     0  04:40      1.07    1.30    1.00
  WS02006239WS02006238 CONDUIT    412.74     0  04:40      1.07    1.32    1.00
  WS02006238WS02006235 CONDUIT    415.78     0  04:39      1.46    0.93    1.00
  WS02006235WS02006234 CONDUIT    530.98     0  04:42      1.38    5.60    1.00
  WS02006234WS02006232 CONDUIT    532.10     0  04:42      1.39    1.08    1.00
  WS02006232WS02006231 CONDUIT    532.01     0  04:42      1.38    1.11    1.00
  WS02006231WS02006230 CONDUIT    532.51     0  04:42      1.39    8.08    1.00
  WS02006230WS02006229 CONDUIT    544.16     0  04:41      1.41   12.11    1.00
  WS02006228WS02006109 CONDUIT    977.64     0  01:28      1.94    4.27    1.00
  WS02006116WS02004401 CONDUIT   1018.01     0  01:30      1.30    1.40    1.00
  WS02006115WS02006116 CONDUIT   1018.02     0  01:30      1.30    1.31    1.00
  WS02006113WS02006111 CONDUIT    978.99     0  01:30      2.72    1.17    1.00
  WS02006112WS02006115 CONDUIT   1018.26     0  01:30      1.30    0.60    1.00
  WS02006111WS02006112 CONDUIT    979.04     0  01:30      1.95    0.47    1.00
  WS02006110WS02006113 CONDUIT    979.04     0  01:28      1.99    0.89    1.00
  WS02006109WS02006110 CONDUIT    979.03     0  01:28      1.95    1.88    1.00
  WS02004411WS02004412 CONDUIT    991.61     0  01:35      1.29    1.41    0.96
  WS02004401WS02004402 CONDUIT   1018.70     0  01:30      1.30    1.22    1.00
  WS02004413WS02003067 CONDUIT    993.37     0  01:32      1.62    0.43    0.73
  WS02004412WS02004413 CONDUIT    993.24     0  01:32      1.28    0.67    0.97
  WS02004410WS02004411 CONDUIT    991.99     0  01:35      1.29    1.35    0.99
  WS02004409WS02004410 CONDUIT   1006.45     0  01:31      1.34    1.30    1.00
  WS02004407WS02004409 CONDUIT   1016.17     0  01:31      1.94    0.36    0.71
  WS02004406WS02004407 CONDUIT   1021.63     0  01:30      1.72    0.46    0.71
  WS02004405WS02004406 CONDUIT   1019.93     0  01:30      1.30    2.01    1.00
  WS02004404WS02004405 CONDUIT   1017.67     0  01:30      1.30    9.97    1.00
  WS02004403WS02004404 CONDUIT   1016.91     0  01:30      1.29    0.74    1.00
  WS02004402WS02004403 CONDUIT   1017.68     0  01:30      1.30    1.46    1.00
  WS02004139WS02001211 CONDUIT    372.69     0  01:40      0.57    0.47    0.64
  WS02004138WS02004139 CONDUIT    378.72     0  01:40      2.45    0.08    0.46
  WS02003067WS02003066 CONDUIT    998.42     0  01:32      1.73    0.32    0.51
  WS02001213WS02003059 CONDUIT    368.81     0  01:43      0.61    0.61    0.88
  WS02001212WS02001213 CONDUIT    369.19     0  01:42      1.18    0.57    0.56
  WS02001211WS02001212 CONDUIT    371.41     0  01:41      0.74    0.28    0.71
  WS02003072WS02003073 CONDUIT   1362.39     0  01:44      1.98    2.94    0.59
  WS02003069WS02003072 CONDUIT   1362.02     0  01:43      1.83    0.66    0.63
  WS02003060WS02003069 CONDUIT   1362.31     0  01:42      2.04    0.53    0.57
  WS02003059WS02003060 CONDUIT    370.17     0  01:43      0.80    0.24    0.78
  HS02004901HS02004770 CONDUIT     47.73     0  01:32      0.11    0.18    0.61
  HS02004876HS02004881 CONDUIT    176.92     0  01:35      1.41    1.88    0.18
  HS02004870HS02004876 CONDUIT    143.30     0  01:35      0.95    0.10    0.22
  HS02004842HS02004848 CONDUIT     21.86     0  01:49      0.09    0.01    0.35
  HS02004837HS02004842 CONDUIT     22.38     0  01:49      0.42    0.01    0.37
  HS02004830HS02004837 CONDUIT     81.97     0  01:35      0.70    0.08    0.18
  HS02004824HS02004830 CONDUIT     82.83     0  01:37      0.63    0.11    0.25
  HS02004817HS02004824 CONDUIT    165.99     0  01:39      0.37    0.07    0.64
  HS02004770HS02004777 CONDUIT    244.64     0  01:32      0.57    0.45    0.62
  HS02004799HS02004480 CONDUIT    605.42     0  01:33      1.21    0.76    0.71
  HS02004792HS02004799 CONDUIT    554.25     0  01:33      1.36    0.34    0.58
  HS02004788HS02004792 CONDUIT    319.85     0  01:34      1.40    0.21    0.33
  HS02004785HS02004788 CONDUIT    244.45     0  01:33      1.02    1.84    0.34
  HS02004777HS02004785 CONDUIT    244.32     0  01:33      0.67    0.30    0.52
  HS02004480HS02004478 CONDUIT    712.97     0  01:33      1.74    3.00    0.59
  HS02004479HS02004480 CONDUIT    107.65     0  01:33      0.45    0.10    0.68
  HS02004862HS02004870 CONDUIT    109.57     0  01:36      0.90    0.12    0.17
  HS02004848HS02004852 CONDUIT     51.63     0  01:36      0.58    0.06    0.13
  HS02004856HS02004862 CONDUIT     76.86     0  01:35      0.67    0.08    0.16
  HS02004852HS02004856 CONDUIT     51.74     0  01:36      0.39    0.06    0.19
  HS02004802HS02004478 CONDUIT    227.57     0  01:38      0.57    0.20    0.58
  HS02004478WS02006287 CONDUIT    934.69     0  01:35      2.37    0.26    0.44
  HS02004817HS02004807 CONDUIT    166.68     0  01:39      0.30    0.10    0.81
  HS02004807HS02004802 CONDUIT    226.36     0  01:37      0.51    0.43    0.64
  YS02001759YS02001757 CONDUIT    902.44     0  01:44      1.15    0.64    1.00
  YS02001762YS02001759 CONDUIT    379.99     0  01:28      0.48    0.44    1.00
  YS02001765YS02001762 CONDUIT    372.25     0  01:28      0.47    0.35    1.00
  YS02001770YS02001767 CONDUIT    363.27     0  03:01      0.50    1.44    1.00
  YS02001774YS02001770 CONDUIT    852.14     0  02:56      1.08    0.54    1.00
  YS02001779YS02001774 CONDUIT    851.74     0  02:30      1.08    0.43    1.00
  YS02001649YS02001757 CONDUIT    871.08     0  01:41      1.11    0.53    1.00
  YS02001767YS02001765 CONDUIT    366.70     0  01:28      0.48    0.46    1.00
  YS02006561YS02001783 CONDUIT   1150.38     0  01:40      2.29    0.60    1.00
  YS02001783YS02001784 CONDUIT   1150.49     0  01:40      2.29    1.59    1.00
  YS02001784YS02001785 CONDUIT   1151.34     0  01:40      2.29    2.68    1.00
  YS02001788YS02001790 CONDUIT   1165.11     0  01:35      2.71    0.86    1.00
  YS02001790YS02001791 CONDUIT   1271.02     0  01:36      3.43    1.38    1.00
  YS02001791YS02001793 CONDUIT   1236.87     0  01:36      6.60    0.53    1.00
  YS02001910YS02001907 CONDUIT    911.49     0  03:01      1.16    0.51    1.00
  YS02001786YS02001788 CONDUIT   1151.29     0  01:40      2.46    2.22    1.00
  YS02001915YS02001910 CONDUIT    911.23     0  03:01      1.16    0.45    1.00
  YS02001918YS02001915 CONDUIT    385.73     0  01:35      0.58    0.21    1.00
  YS02001923YS02001920 CONDUIT    380.64     0  01:35      0.90    0.17    1.00
  YS02001926YS02001923 CONDUIT    355.17     0  03:01      0.97    0.51    1.00
  YS02001929YS02001926 CONDUIT    352.66     0  03:01      1.04    0.17    1.00
  YS02001920YS02001918 CONDUIT    384.23     0  01:35      0.86    0.37    1.00
  YS02001629YS02163301 CONDUIT    284.23     0  01:26      0.36    0.35    1.00
  YS02001619YS02001622 CONDUIT    574.86     0  03:01      0.86    0.85    1.00
  YS02001622YS02001625 CONDUIT    575.13     0  03:01      0.73    0.31    1.00
  YS02001625YS02001629 CONDUIT    260.24     0  01:26      0.40    0.12    1.00
  YS02163301YS02001633 CONDUIT    282.60     0  01:26      0.36    0.27    1.00
  YS02163601YS02164001 CONDUIT    461.00     0  01:28      0.59    0.41    1.00
  YS02164001YS02001641 CONDUIT    459.33     0  01:28      0.58    0.63    1.00
  YS02001641YS02001644 CONDUIT    457.73     0  01:28      0.58    1.48    1.00
  YS02001647YS02001649 CONDUIT    846.70     0  03:21      1.08    0.45    1.00
  YS02006553YS02006556 CONDUIT    701.71     0  03:51      0.89    0.60    1.00
  YS02006556YS02006558 CONDUIT    702.10     0  03:51      0.89    0.55    1.00
  YSB6556YSB1171       CONDUIT     59.51     0  01:34      0.17    0.06    0.88
  YS02001907YS02006553 CONDUIT    701.49     0  03:52      0.78    0.83    1.00
  YS02006558YS02006561 CONDUIT   1150.28     0  01:40      4.07    2.54    1.00
  YS02001633YS02163601 CONDUIT    460.31     0  01:28      0.59    0.48    1.00
  YS02001644YS02001647 CONDUIT    846.70     0  03:21      1.08    0.50    1.00
  YS02001745YS02001748 CONDUIT    667.39     0  03:01      1.86    0.26    1.00
  YS02001748YS02001751 CONDUIT    667.61     0  03:01      1.39    0.34    1.00
  YS02001751YS02001754 CONDUIT    667.79     0  03:01      1.15    0.32    1.00
  YS02001754YS02001757 CONDUIT    668.23     0  03:01      0.85    0.27    1.00
  YS02001882YS02001884 CONDUIT     32.75     0  01:30      0.22    0.04    1.00
  YS02001884YS02001887 CONDUIT     65.04     0  01:29      0.16    0.09    1.00
  YS02001890YS02001895 CONDUIT    600.81     0  01:33      0.76    0.28    1.00
  YS02001895YS02001898 CONDUIT    602.02     0  01:33      0.77    1.04    1.00
  YS02001898YS02001901 CONDUIT    603.25     0  01:33      0.77    0.39    1.00
  YS02001901YS02001904 CONDUIT    602.54     0  01:33      0.77    0.93    1.00
  YS02001904YS02001907 CONDUIT    601.53     0  01:33      0.77    0.21    1.00
  YS02001887YS02001890 CONDUIT    815.93     0  01:58      1.04    1.40    1.00
  YS02001652YS02001649 CONDUIT    639.73     0  03:01      0.84    0.32    1.00
  YS02001655YS02001652 CONDUIT    639.62     0  03:01      1.25    0.31    1.00
  YS02001658YS02001655 CONDUIT    639.26     0  03:01      1.61    0.27    1.00
  YS02001661YS02001658 CONDUIT    639.00     0  03:01      1.99    0.25    1.00
  YS02001664YS02001661 CONDUIT    790.71     0  01:37      1.90    0.25    0.85
  YSB1154YSB6556       CONDUIT     59.43     0  01:33      0.17    0.11    0.84
  YSB1174YSB1171       CONDUIT     50.33     0  01:30      0.14    0.08    0.92
  YSB1171HS02004479    CONDUIT    107.72     0  01:33      0.54    0.07    0.78
  HS02004881HS02006253 CONDUIT    220.62     0  01:27      2.49    0.04    0.55
  YS02001793JiankangQianchi CONDUIT   1218.29     0  01:34     15.38    0.10    1.00
  YS02001757CaochengTiaoxuchi CONDUIT   2188.88     0  01:43      3.83    0.96    1.00
  WSF200WS02003060     CONDUIT   1007.28     0  01:32      2.51    0.22    0.45
  1                    CONDUIT   1364.70     0  01:45      3.61    0.48    0.49
  CC-Pump-1            PUMP       200.00     0  02:00              1.00
  CC-Pump-2            PUMP       200.00     0  04:10              1.00
  JK-Pump-1            PUMP       300.00     0  01:23              1.00
  JK-Pump-2            PUMP       683.00     0  02:00              1.00
  XR-Pump-1            PUMP        95.00     0  00:30              1.00
  XR-Pump-2            PUMP        95.00     0  00:50              1.00
  XR-Pump-3            PUMP        95.00     0  00:00              1.00
  XR-Pump-4            PUMP        95.00     0  00:30              1.00
  
  
  ***************************
  Flow Classification Summary
  ***************************
  
  -------------------------------------------------------------------------------------
                      Adjusted    ---------- Fraction of Time in Flow Class ---------- 
                       /Actual         Up    Down  Sub   Sup   Up    Down  Norm  Inlet 
  Conduit               Length    Dry  Dry   Dry   Crit  Crit  Crit  Crit  Ltd   Ctrl  
  -------------------------------------------------------------------------------------
  WS02003066WSF200        1.00   0.06  0.00  0.00  0.00  0.94  0.00  0.00  0.40  0.00
  WS02006287WS02006284    1.00   0.03  0.01  0.00  0.64  0.33  0.00  0.00  0.61  0.00
  WS02006284WS02006280    1.00   0.03  0.00  0.00  0.00  0.00  0.00  0.96  0.00  0.00
  WS02006280WS02006229    1.00   0.03  0.00  0.00  0.05  0.10  0.00  0.81  0.06  0.00
  WS02006229WS02006228    1.00   0.00  0.00  0.00  1.00  0.00  0.00  0.00  0.00  0.00
  WS02006256WS02006235    1.00   0.00  0.00  0.00  1.00  0.00  0.00  0.00  0.00  0.00
  WS02006253WS02006251    1.00   0.01  0.01  0.00  0.97  0.00  0.01  0.00  0.00  0.00
  WS02006252WS02006251    1.00   0.05  0.00  0.00  0.21  0.00  0.74  0.00  0.00  0.00
  WS02006251WS02006249    1.00   0.00  0.00  0.00  1.00  0.00  0.00  0.00  0.13  0.00
  WS02006249WS02006248    1.00   0.00  0.01  0.00  0.95  0.00  0.04  0.00  0.00  0.00
  WS02006248WS02006247    1.00   0.01  0.00  0.00  0.99  0.00  0.00  0.00  0.03  0.00
  WS02006247WS02006245    1.00   0.00  0.00  0.00  0.99  0.00  0.00  0.00  0.00  0.00
  WS02006245WS02006243    1.00   0.00  0.00  0.00  0.96  0.00  0.00  0.04  0.01  0.00
  WS02006243WS02006242    1.00   0.00  0.00  0.00  0.99  0.00  0.00  0.00  0.15  0.00
  WS02006242WS02006240    1.00   0.00  0.00  0.00  0.99  0.00  0.01  0.00  0.00  0.00
  WS02006240WS02006239    1.00   0.00  0.00  0.00  0.97  0.00  0.00  0.03  0.01  0.00
  WS02006239WS02006238    1.00   0.00  0.00  0.00  1.00  0.00  0.00  0.00  0.00  0.00
  WS02006238WS02006235    1.00   0.00  0.00  0.00  1.00  0.00  0.00  0.00  0.00  0.00
  WS02006235WS02006234    1.00   0.00  0.00  0.00  0.98  0.00  0.02  0.00  0.00  0.00
  WS02006234WS02006232    1.00   0.00  0.00  0.00  1.00  0.00  0.00  0.00  0.01  0.00
  WS02006232WS02006231    1.00   0.00  0.00  0.00  1.00  0.00  0.00  0.00  0.00  0.00
  WS02006231WS02006230    1.00   0.00  0.00  0.00  0.86  0.00  0.14  0.00  0.00  0.00
  WS02006230WS02006229    1.00   0.00  0.00  0.00  1.00  0.00  0.00  0.00  0.01  0.00
  WS02006228WS02006109    1.00   0.00  0.00  0.00  1.00  0.00  0.00  0.00  0.00  0.00
  WS02006116WS02004401    1.00   0.01  0.00  0.00  0.99  0.00  0.00  0.00  0.00  0.00
  WS02006115WS02006116    1.00   0.01  0.00  0.00  0.98  0.00  0.00  0.01  0.00  0.00
  WS02006113WS02006111    1.00   0.01  0.00  0.00  0.17  0.83  0.00  0.00  0.10  0.00
  WS02006112WS02006115    1.00   0.01  0.00  0.00  0.99  0.00  0.00  0.00  0.00  0.00
  WS02006111WS02006112    1.00   0.01  0.00  0.00  0.99  0.00  0.00  0.00  0.74  0.00
  WS02006110WS02006113    1.00   0.00  0.00  0.00  0.99  0.00  0.00  0.00  0.00  0.00
  WS02006109WS02006110    1.00   0.00  0.00  0.00  0.99  0.00  0.00  0.00  0.00  0.00
  WS02004411WS02004412    1.00   0.03  0.00  0.00  0.97  0.00  0.00  0.00  0.00  0.00
  WS02004401WS02004402    1.00   0.01  0.00  0.00  0.99  0.00  0.00  0.00  0.00  0.00
  WS02004413WS02003067    1.00   0.03  0.02  0.00  0.00  0.00  0.95  0.00  0.00  0.00
  WS02004412WS02004413    1.00   0.03  0.00  0.00  0.97  0.00  0.00  0.00  0.02  0.00
  WS02004410WS02004411    1.00   0.03  0.00  0.00  0.97  0.00  0.00  0.00  0.00  0.00
  WS02004409WS02004410    1.00   0.03  0.00  0.00  0.97  0.00  0.00  0.00  0.00  0.00
  WS02004407WS02004409    1.00   0.03  0.00  0.00  0.95  0.02  0.00  0.00  0.84  0.00
  WS02004406WS02004407    1.00   0.00  0.03  0.00  0.97  0.00  0.00  0.00  0.00  0.00
  WS02004405WS02004406    1.00   0.00  0.00  0.00  1.00  0.00  0.00  0.00  0.00  0.00
  WS02004404WS02004405    1.00   0.00  0.00  0.00  1.00  0.00  0.00  0.00  0.00  0.00
  WS02004403WS02004404    1.00   0.00  0.01  0.00  0.99  0.00  0.00  0.00  0.01  0.00
  WS02004402WS02004403    1.00   0.01  0.00  0.00  0.99  0.00  0.00  0.00  0.00  0.00
  WS02004139WS02001211    1.00   0.00  0.00  0.00  1.00  0.00  0.00  0.00  0.00  0.00
  WS02004138WS02004139    1.00   0.00  0.00  0.00  1.00  0.00  0.00  0.00  1.00  0.00
  WS02003067WS02003066    1.00   0.05  0.00  0.00  0.94  0.00  0.00  0.00  0.00  0.00
  WS02001213WS02003059    1.00   0.00  0.00  0.00  1.00  0.00  0.00  0.00  0.00  0.00
  WS02001212WS02001213    1.00   0.00  0.00  0.00  0.91  0.00  0.09  0.00  0.00  0.00
  WS02001211WS02001212    1.00   0.00  0.00  0.00  1.00  0.00  0.00  0.00  0.00  0.00
  WS02003072WS02003073    1.00   0.00  0.00  0.00  0.00  0.00  0.00  1.00  0.00  0.00
  WS02003069WS02003072    1.00   0.00  0.00  0.00  1.00  0.00  0.00  0.00  0.17  0.00
  WS02003060WS02003069    1.00   0.00  0.00  0.00  0.99  0.01  0.00  0.00  0.11  0.00
  WS02003059WS02003060    1.00   0.00  0.00  0.00  1.00  0.00  0.00  0.00  0.01  0.00
  HS02004901HS02004770    1.00   0.03  0.00  0.00  0.97  0.00  0.00  0.00  0.00  0.00
  HS02004876HS02004881    1.00   0.01  0.00  0.00  0.81  0.18  0.00  0.00  0.00  0.00
  HS02004870HS02004876    1.00   0.00  0.00  0.00  1.00  0.00  0.00  0.00  0.95  0.00
  HS02004842HS02004848    1.00   0.00  0.03  0.00  0.97  0.00  0.00  0.00  0.53  0.00
  HS02004837HS02004842    1.00   0.00  0.00  0.00  1.00  0.00  0.00  0.00  0.11  0.00
  HS02004830HS02004837    1.00   0.00  0.00  0.00  1.00  0.00  0.00  0.00  0.99  0.00
  HS02004824HS02004830    1.00   0.00  0.00  0.00  1.00  0.00  0.00  0.00  0.03  0.00
  HS02004817HS02004824    1.00   0.00  0.00  0.00  1.00  0.00  0.00  0.00  0.86  0.00
  HS02004770HS02004777    1.00   0.00  0.03  0.00  0.97  0.00  0.00  0.00  0.01  0.00
  HS02004799HS02004480    1.00   0.00  0.01  0.00  0.96  0.00  0.02  0.00  0.00  0.00
  HS02004792HS02004799    1.00   0.00  0.00  0.00  1.00  0.00  0.00  0.00  0.98  0.00
  HS02004788HS02004792    1.00   0.00  0.00  0.00  1.00  0.00  0.00  0.00  0.98  0.00
  HS02004785HS02004788    1.00   0.00  0.00  0.00  1.00  0.00  0.00  0.00  0.00  0.00
  HS02004777HS02004785    1.00   0.00  0.00  0.00  1.00  0.00  0.00  0.00  0.10  0.00
  HS02004480HS02004478    1.00   0.03  0.00  0.00  0.72  0.00  0.00  0.25  0.00  0.00
  HS02004479HS02004480    1.00   0.01  0.00  0.00  0.99  0.00  0.00  0.00  0.10  0.00
  HS02004862HS02004870    1.00   0.00  0.00  0.00  1.00  0.00  0.00  0.00  0.02  0.00
  HS02004848HS02004852    1.00   0.03  0.00  0.00  0.97  0.00  0.00  0.00  0.83  0.00
  HS02004856HS02004862    1.00   0.00  0.04  0.00  0.96  0.00  0.00  0.00  0.85  0.00
  HS02004852HS02004856    1.00   0.03  0.00  0.00  0.97  0.00  0.00  0.00  0.69  0.00
  HS02004802HS02004478    1.00   0.03  0.00  0.00  0.97  0.00  0.00  0.00  0.01  0.00
  HS02004478WS02006287    1.00   0.04  0.00  0.00  0.75  0.22  0.00  0.00  0.58  0.00
  HS02004817HS02004807    1.00   0.00  0.03  0.00  0.97  0.00  0.00  0.00  0.01  0.00
  HS02004807HS02004802    1.00   0.03  0.00  0.00  0.96  0.00  0.00  0.00  0.00  0.00
  YS02001759YS02001757    1.00   0.00  0.00  0.00  1.00  0.00  0.00  0.00  0.15  0.00
  YS02001762YS02001759    1.00   0.00  0.00  0.00  1.00  0.00  0.00  0.00  0.01  0.00
  YS02001765YS02001762    1.00   0.00  0.00  0.00  1.00  0.00  0.00  0.00  0.13  0.00
  YS02001770YS02001767    1.00   0.00  0.00  0.00  1.00  0.00  0.00  0.00  0.00  0.00
  YS02001774YS02001770    1.00   0.00  0.03  0.00  0.97  0.00  0.00  0.00  0.01  0.00
  YS02001779YS02001774    1.00   0.00  0.00  0.00  1.00  0.00  0.00  0.00  0.15  0.00
  YS02001649YS02001757    1.00   0.00  0.00  0.00  1.00  0.00  0.00  0.00  0.14  0.00
  YS02001767YS02001765    1.00   0.00  0.00  0.00  1.00  0.00  0.00  0.00  0.00  0.00
  YS02006561YS02001783    1.00   0.04  0.00  0.00  0.43  0.53  0.00  0.00  0.35  0.00
  YS02001783YS02001784    1.00   0.00  0.04  0.00  0.96  0.00  0.00  0.00  0.00  0.00
  YS02001784YS02001785    1.00   0.00  0.00  0.00  1.00  0.00  0.00  0.00  0.15  0.00
  YS02001788YS02001790    1.00   0.00  0.00  0.00  0.47  0.53  0.00  0.00  0.32  0.00
  YS02001790YS02001791    1.00   0.00  0.00  0.00  0.45  0.55  0.00  0.00  0.37  0.00
  YS02001791YS02001793    1.00   0.00  0.00  0.00  0.47  0.53  0.00  0.00  0.02  0.00
  YS02001910YS02001907    1.00   0.00  0.00  0.00  0.99  0.00  0.00  0.01  0.11  0.00
  YS02001786YS02001788    1.00   0.00  0.00  0.00  0.47  0.53  0.00  0.00  0.00  0.00
  YS02001915YS02001910    1.00   0.00  0.00  0.00  0.99  0.01  0.00  0.00  0.12  0.00
  YS02001918YS02001915    1.00   0.00  0.00  0.00  0.99  0.00  0.00  0.00  0.43  0.00
  YS02001923YS02001920    1.00   0.00  0.00  0.00  1.00  0.00  0.00  0.00  0.63  0.00
  YS02001926YS02001923    1.00   0.00  0.02  0.00  0.30  0.00  0.68  0.00  0.00  0.00
  YS02001929YS02001926    1.00   0.00  0.03  0.00  0.97  0.00  0.00  0.00  0.55  0.00
  YS02001920YS02001918    1.00   0.00  0.00  0.00  1.00  0.00  0.00  0.00  0.00  0.00
  YS02001629YS02163301    1.00   0.03  0.00  0.00  0.96  0.00  0.00  0.00  0.00  0.00
  YS02001619YS02001622    1.00   0.03  0.00  0.00  0.97  0.00  0.00  0.00  0.00  0.00
  YS02001622YS02001625    1.00   0.03  0.00  0.00  0.97  0.00  0.00  0.00  0.02  0.00
  YS02001625YS02001629    1.00   0.03  0.01  0.00  0.95  0.00  0.01  0.00  0.00  0.00
  YS02163301YS02001633    1.00   0.00  0.03  0.00  0.97  0.00  0.00  0.00  0.00  0.00
  YS02163601YS02164001    1.00   0.00  0.02  0.00  0.98  0.00  0.00  0.00  0.00  0.00
  YS02164001YS02001641    1.00   0.00  0.02  0.00  0.98  0.00  0.00  0.00  0.05  0.00
  YS02001641YS02001644    1.00   0.00  0.00  0.00  1.00  0.00  0.00  0.00  0.00  0.00
  YS02001647YS02001649    1.00   0.00  0.04  0.00  0.96  0.00  0.00  0.00  0.01  0.00
  YS02006553YS02006556    1.00   0.00  0.00  0.00  1.00  0.00  0.00  0.00  0.03  0.00
  YS02006556YS02006558    1.00   0.00  0.00  0.00  1.00  0.00  0.00  0.00  0.00  0.00
  YSB6556YSB1171          1.00   0.01  0.02  0.00  0.97  0.00  0.00  0.00  0.00  0.00
  YS02001907YS02006553    1.00   0.00  0.01  0.00  0.99  0.00  0.00  0.00  0.00  0.00
  YS02006558YS02006561    1.00   0.04  0.00  0.00  0.34  0.62  0.00  0.00  0.35  0.00
  YS02001633YS02163601    1.00   0.00  0.00  0.00  1.00  0.00  0.00  0.00  0.14  0.00
  YS02001644YS02001647    1.00   0.00  0.04  0.00  0.96  0.00  0.00  0.00  0.00  0.00
  YS02001745YS02001748    1.00   0.00  0.00  0.00  0.94  0.00  0.00  0.06  0.00  0.00
  YS02001748YS02001751    1.00   0.00  0.00  0.00  0.98  0.02  0.00  0.00  0.13  0.00
  YS02001751YS02001754    1.00   0.00  0.00  0.00  0.96  0.00  0.00  0.04  0.01  0.00
  YS02001754YS02001757    1.00   0.00  0.00  0.00  1.00  0.00  0.00  0.00  0.15  0.00
  YS02001882YS02001884    1.00   0.03  0.00  0.00  0.96  0.00  0.00  0.00  0.00  0.00
  YS02001884YS02001887    1.00   0.02  0.01  0.00  0.97  0.00  0.00  0.00  0.00  0.00
  YS02001890YS02001895    1.00   0.00  0.03  0.00  0.96  0.00  0.00  0.00  0.00  0.00
  YS02001895YS02001898    1.00   0.04  0.00  0.00  0.96  0.00  0.01  0.00  0.00  0.00
  YS02001898YS02001901    1.00   0.04  0.00  0.00  0.96  0.00  0.00  0.00  0.00  0.00
  YS02001901YS02001904    1.00   0.04  0.00  0.00  0.96  0.00  0.00  0.00  0.00  0.00
  YS02001904YS02001907    1.00   0.00  0.04  0.00  0.96  0.00  0.00  0.00  0.00  0.00
  YS02001887YS02001890    1.00   0.00  0.00  0.00  0.99  0.00  0.01  0.00  0.00  0.00
  YS02001652YS02001649    1.00   0.00  0.00  0.00  1.00  0.00  0.00  0.00  0.14  0.00
  YS02001655YS02001652    1.00   0.00  0.00  0.00  0.96  0.00  0.00  0.04  0.01  0.00
  YS02001658YS02001655    1.00   0.00  0.03  0.00  0.95  0.02  0.00  0.00  0.01  0.00
  YS02001661YS02001658    1.00   0.03  0.00  0.00  0.94  0.03  0.00  0.00  0.00  0.00
  YS02001664YS02001661    1.00   0.03  0.00  0.00  0.94  0.03  0.00  0.00  0.06  0.00
  YSB1154YSB6556          1.00   0.03  0.00  0.00  0.97  0.00  0.00  0.00  0.01  0.00
  YSB1174YSB1171          1.00   0.01  0.01  0.00  0.98  0.00  0.00  0.00  0.00  0.00
  YSB1171HS02004479       1.00   0.01  0.00  0.00  0.98  0.00  0.00  0.00  0.09  0.00
  HS02004881HS02006253    1.00   0.02  0.00  0.00  0.81  0.02  0.00  0.16  0.69  0.00
  YS02001793JiankangQianchi    1.00   0.00  0.00  0.00  0.65  0.35  0.00  0.00  0.14  0.00
  YS02001757CaochengTiaoxuchi    1.00   0.00  0.05  0.00  0.93  0.02  0.00  0.00  0.00  0.00
  WSF200WS02003060        1.00   0.00  0.06  0.00  0.35  0.59  0.00  0.00  0.06  0.00
  1                       1.00   0.00  0.00  0.00  0.00  1.00  0.00  0.00  0.44  0.00
  
  
  *************************
  Conduit Surcharge Summary
  *************************
  
  ----------------------------------------------------------------------------
                                                           Hours        Hours 
                         --------- Hours Full --------   Above Full   Capacity
  Conduit                Both Ends  Upstream  Dnstream   Normal Flow   Limited
  ----------------------------------------------------------------------------
  WS02006280WS02006229        0.01      0.01      0.01      0.01         0.01
  WS02006229WS02006228        5.03      5.15      5.03      6.05         5.02
  WS02006256WS02006235        6.46      6.47      7.51      5.97         0.01
  WS02006253WS02006251        2.77      2.78      2.88      0.01         0.02
  WS02006252WS02006251        2.19      2.19      2.98      1.45         0.01
  WS02006251WS02006249        2.80      2.81      2.95      0.95         0.86
  WS02006249WS02006248        2.86      2.86      2.95      3.55         0.01
  WS02006248WS02006247        2.95      2.95      3.13      0.01         0.01
  WS02006247WS02006245        3.11      3.18      3.11      4.52         2.42
  WS02006245WS02006243        3.16      3.16      3.32      0.27         0.32
  WS02006243WS02006242        3.41      3.41      4.00      0.01         0.01
[...]
  YS02001649YS02001757        6.40      6.40      6.42      0.01         0.01
  YS02001767YS02001765        6.39      6.39      6.40      0.01         0.01
  YS02006561YS02001783        2.51      2.51      2.98      0.01         0.01
  YS02001783YS02001784        2.97      2.98      2.99      2.90         2.84
  YS02001784YS02001785        2.93      2.99      2.93      3.60         2.93
  YS02001788YS02001790        2.77      2.77      3.14      0.01         0.01
  YS02001790YS02001791        3.14      3.14      3.22      2.43         2.26
  YS02001791YS02001793        3.22      3.22      3.55      0.01         0.01
  YS02001910YS02001907        2.83      2.83      3.13      0.01         0.01
  YS02001786YS02001788        2.77      2.93      2.77      3.30         2.77
  YS02001915YS02001910        2.65      2.65      2.83      0.01         0.01
  YS02001918YS02001915        2.43      2.43      2.65      0.01         0.01
  YS02001923YS02001920        2.27      2.27      2.47      0.01         0.01
  YS02001926YS02001923        0.01      0.01      0.01      0.01         0.01
  YS02001929YS02001926        0.01      0.01      0.01      0.01         0.01
  YS02001920YS02001918        2.43      2.43      2.47      0.01         0.01
  YS02001629YS02163301        6.38      6.38      6.39      0.01         0.01
  YS02001619YS02001622        6.37      6.37      6.37      0.01         0.04
  YS02001622YS02001625        6.37      6.37      6.38      0.01         0.01
  YS02001625YS02001629        6.37      6.37      6.38      0.01         0.01
  YS02163301YS02001633        6.39      6.39      6.40      0.01         0.01
  YS02163601YS02164001        6.40      6.40      6.40      0.01         0.01
  YS02164001YS02001641        6.40      6.40      6.40      0.01         0.02
  YS02001641YS02001644        6.40      6.40      6.40      3.17         3.26
  YS02001647YS02001649        6.38      6.38      6.40      0.01         0.01
  YS02006553YS02006556        2.99      2.99      3.18      0.01         0.01
  YS02006556YS02006558        3.06      3.06      3.24      0.01         0.01
  YSB6556YSB1171              0.01      0.01      0.58      0.01         0.01
  YS02001907YS02006553        3.63      3.63      3.82      0.01         0.01
  YS02006558YS02006561        2.70      2.96      2.70      3.48         2.70
  YS02001633YS02163601        6.40      6.40      6.40      0.01         0.01
  YS02001644YS02001647        6.38      6.38      6.40      0.01         0.01
  YS02001745YS02001748        0.88      0.88      6.35      0.01         0.01
  YS02001748YS02001751        6.35      6.35      6.36      0.01         0.01
  YS02001751YS02001754        6.36      6.36      6.38      0.01         0.01
  YS02001754YS02001757        6.38      6.38      6.42      0.01         0.01
  YS02001882YS02001884        2.66      2.66      2.69      0.01         0.01
  YS02001884YS02001887        2.74      2.74      2.77      0.01         0.01
  YS02001890YS02001895        2.63      2.63      2.85      0.01         0.01
  YS02001895YS02001898        2.62      2.62      2.63      0.02         0.01
  YS02001898YS02001901        2.64      2.64      2.73      0.01         0.01
  YS02001901YS02001904        2.71      2.71      2.73      0.01         0.01
  YS02001904YS02001907        2.71      2.71      3.19      0.01         0.01
  YS02001887YS02001890        2.79      2.79      2.81      1.65         0.01
  YS02001652YS02001649        6.38      6.38      6.40      0.01         0.01
  YS02001655YS02001652        6.37      6.37      6.38      0.01         0.01
  YS02001658YS02001655        6.35      6.35      6.37      0.01         0.01
  YS02001661YS02001658        1.44      1.44      6.35      0.01         0.01
  YS02001664YS02001661        0.01      0.01      2.67      0.01         0.01
  YSB1174YSB1171              0.01      0.01      0.32      0.01         0.01
  HS02004881HS02006253        0.01      0.01      1.98      0.01         0.01
  YS02001793JiankangQianchi        3.47      3.47      4.57      0.01         0.01
  YS02001757CaochengTiaoxuchi        5.95      5.95      6.42      0.01         0.01
  
  
  ***************
  Pumping Summary
  ***************
  
  ---------------------------------------------------------------------------------------------------------
                                                  Min       Avg       Max     Total     Power    % Time Off
                        Percent   Number of      Flow      Flow      Flow    Volume     Usage    Pump Curve
  Pump                 Utilized   Start-Ups       LPS       LPS       LPS  10^6 ltr     Kw-hr    Low   High
  ---------------------------------------------------------------------------------------------------------
  CC-Pump-1               63.62           9      0.00    127.83    200.00     2.339      2.76    0.0    5.1
  CC-Pump-2               53.20           8      0.00    134.27    200.00     1.980      2.26    0.0    2.4
  JK-Pump-1               82.98           7      0.00    181.79    300.00     4.122     48.13    0.0    0.0
  JK-Pump-2               85.11           4      0.00    347.99    683.00     7.772     89.70    0.0   96.4
  XR-Pump-1               74.47           9      0.00     64.52     95.00     1.339      7.78    0.0    0.0
  XR-Pump-2               72.30           8      0.00     59.13     95.00     1.282      6.64    0.0    0.0
  XR-Pump-3               78.72           3      0.00     69.00     95.00     1.568      9.41    0.0    0.0
  XR-Pump-4               80.83          10      0.00     70.30     95.00     1.567      8.19    0.0    0.0
  
  
  ***************************
  Link Pollutant Load Summary
  ***************************
  
  ------------------------------------------------------------------------------------------
                                 COD            SS            TN            TP         NH4-N
  Link                            kg            kg            kg            kg            kg
  ------------------------------------------------------------------------------------------
  WS02003066WSF200          1450.456      2831.387        33.806         2.765        17.224
  WS02006287WS02006284       662.705      1308.618        17.244         1.527         9.012
  WS02006284WS02006280       663.202      1309.419        17.291         1.533         9.042
  WS02006280WS02006229       663.290      1309.674        17.291         1.533         9.042
  WS02006229WS02006228      1439.157      2810.213        33.023         2.663        16.746
  WS02006256WS02006235       331.315       628.932         7.070         0.527         3.514
  WS02006253WS02006251       130.918       265.085         2.761         0.200         1.347
  WS02006252WS02006251       493.288       966.980         9.365         0.645         4.510
  WS02006251WS02006249       610.374      1205.287        11.876         0.830         5.742
  WS02006249WS02006248       483.304       948.843         9.440         0.660         4.571
  WS02006248WS02006247       480.256       942.234         9.394         0.658         4.552
  WS02006247WS02006245       479.124       939.747         9.374         0.656         4.542
  WS02006245WS02006243       478.444       938.193         9.358         0.655         4.535
  WS02006243WS02006242       477.955       936.822         9.350         0.655         4.532
  WS02006242WS02006240       476.515       933.587         9.317         0.653         4.516
  WS02006240WS02006239       476.644       933.721         9.310         0.652         4.512
  WS02006239WS02006238       478.419       937.373         9.333         0.654         4.521
  WS02006238WS02006235       480.634       941.867         9.369         0.656         4.538
  WS02006235WS02006234       780.042      1508.550        15.821         1.137         7.748
  WS02006234WS02006232       779.171      1506.891        15.805         1.136         7.740
  WS02006232WS02006231       778.746      1506.075        15.800         1.136         7.739
  WS02006231WS02006230       778.780      1506.171        15.810         1.137         7.745
  WS02006230WS02006229       780.411      1509.376        15.859         1.142         7.772
  WS02006228WS02006109      1438.144      2808.318        33.000         2.661        16.734
  WS02006116WS02004401      1466.232      2861.374        34.146         2.790        17.393
  WS02006115WS02006116      1468.026      2864.753        34.190         2.793        17.416
  WS02006113WS02006111      1443.782      2816.744        33.745         2.758        17.208
  WS02006112WS02006115      1469.838      2868.163        34.240         2.798        17.442
  WS02006111WS02006112      1442.993      2815.162        33.726         2.756        17.197
  WS02006110WS02006113      1444.499      2817.982        33.767         2.760        17.219
  WS02006109WS02006110      1445.830      2820.372        33.806         2.763        17.240
  WS02004411WS02004412      1454.322      2838.638        33.926         2.776        17.290
  WS02004401WS02004402      1464.549      2858.212        34.100         2.786        17.369
  WS02004413WS02003067      1451.712      2833.764        33.836         2.767        17.239
  WS02004412WS02004413      1452.847      2835.875        33.884         2.772        17.267
  WS02004410WS02004411      1455.682      2841.201        33.961         2.779        17.308
  WS02004409WS02004410      1456.962      2843.602        33.997         2.782        17.328
  WS02004407WS02004409      1458.245      2846.006        34.030         2.785        17.345
  WS02004406WS02004407      1458.761      2846.950        34.039         2.785        17.349
  WS02004405WS02004406      1460.505      2850.199        34.098         2.791        17.382
  WS02004404WS02004405      1462.023      2853.158        34.110         2.791        17.384
  WS02004403WS02004404      1461.732      2852.924        34.025         2.779        17.329
  WS02004402WS02004403      1462.991      2855.285        34.061         2.782        17.348
  WS02004139WS02001211       721.585      1245.861        49.816         5.918        30.245
  WS02004138WS02004139       725.687      1253.026        50.064         5.946        30.393
  WS02003067WS02003066      1450.682      2831.804        33.813         2.766        17.228
  WS02001213WS02003059       759.093      1304.609        53.732         6.412        32.707
  WS02001212WS02001213       764.961      1314.697        54.124         6.459        32.945
  WS02001211WS02001212       766.918      1317.892        54.293         6.479        33.049
  WS02003072WS02003073      2309.257      4293.771        97.555        10.437        56.211
  WS02003069WS02003072      2313.723      4301.289        97.903        10.479        56.425
  WS02003060WS02003069      2315.191      4304.144        97.916        10.479        56.429
  WS02003059WS02003060       757.286      1301.922        53.537         6.388        32.587
  HS02004901HS02004770        31.244        62.191         0.612         0.047         0.291
  HS02004876HS02004881       101.420       206.342         2.154         0.154         1.046
  HS02004870HS02004876        77.891       158.603         1.700         0.122         0.826
  HS02004842HS02004848        14.996        29.644         0.314         0.022         0.147
  HS02004837HS02004842        19.706        37.149         0.788         0.082         0.444
  HS02004830HS02004837       101.807       187.059         5.288         0.600         3.141
  HS02004824HS02004830       102.664       188.511         5.363         0.610         3.188
  HS02004817HS02004824       158.473       303.833         6.498         0.682         3.738
  HS02004770HS02004777       119.656       241.834         2.495         0.175         1.169
  HS02004799HS02004480       374.849       742.508         8.578         0.702         4.270
  HS02004792HS02004799       343.105       676.992         8.002         0.666         3.998
  HS02004788HS02004792       180.026       356.967         4.687         0.402         2.399
  HS02004785HS02004788       121.037       244.042         2.637         0.193         1.259
  HS02004777HS02004785       120.354       242.959         2.574         0.185         1.219
  HS02004480HS02004478       464.855       922.777        10.234         0.827         5.069
  HS02004479HS02004480        93.775       186.487         1.954         0.161         0.984
  HS02004862HS02004870        60.206       121.277         1.341         0.100         0.653
  HS02004848HS02004852        26.762        53.673         0.548         0.038         0.256
  HS02004856HS02004862        41.870        85.063         0.850         0.058         0.403
  HS02004852HS02004856        26.786        53.717         0.548         0.038         0.257
  HS02004802HS02004478       198.972       387.651         7.079         0.709         3.985
  HS02004478WS02006287       662.783      1308.651        17.260         1.529         9.023
  HS02004817HS02004807       157.293       302.071         6.359         0.664         3.650
  HS02004807HS02004802       198.939       387.554         7.104         0.712         4.002
  YS02001759YS02001757       600.944      1163.267        11.709         0.829         5.710
  YS02001762YS02001759       361.444       693.563         7.320         0.521         3.591
  YS02001765YS02001762       362.443       696.907         7.350         0.524         3.608
  YS02001770YS02001767       369.077       713.668         7.352         0.515         3.589
  YS02001774YS02001770       818.547      1627.102        16.040         1.095         7.790
  YS02001779YS02001774       817.935      1626.028        16.100         1.105         7.834
  YS02001649YS02001757       712.590      1383.352        14.148         0.974         6.842
  YS02001767YS02001765       364.920       703.217         7.400         0.528         3.634
  YS02006561YS02001783      1607.342      3083.437        33.245         2.435        16.396
  YS02001783YS02001784      1607.204      3083.211        33.240         2.435        16.393
  YS02001784YS02001785      1614.587      3095.078        33.954         2.524        16.839
  YS02001788YS02001790      1615.148      3096.001        34.025         2.533        16.884
  YS02001790YS02001791      1616.287      3097.965        34.125         2.546        16.947
  YS02001791YS02001793      1616.179      3097.730        34.121         2.545        16.945
  YS02001910YS02001907       950.160      1845.976        20.339         1.454        10.119
  YS02001786YS02001788      1614.814      3095.503        33.982         2.528        16.857
  YS02001915YS02001910       950.239      1846.117        20.297         1.447        10.091
  YS02001918YS02001915       472.454       886.605        10.554         0.859         5.401
  YS02001923YS02001920       446.745       842.458         8.514         0.612         4.143
  YS02001926YS02001923       443.900       837.313         8.404         0.600         4.080
  YS02001929YS02001926       441.611       833.279         8.308         0.590         4.024
  YS02001920YS02001918       467.846       876.922        10.452         0.852         5.350
  YS02001629YS02163301       210.284       397.762         4.139         0.295         1.980
  YS02001619YS02001622       451.051       868.498         9.084         0.615         4.292
  YS02001622YS02001625       450.711       868.044         9.072         0.614         4.286
  YS02001625YS02001629       204.666       386.769         4.038         0.287         1.929
  YS02163301YS02001633       216.013       409.001         4.238         0.303         2.029
  YS02163601YS02164001       715.969      1349.611        13.901         1.022         6.717
  YS02164001YS02001641       716.617      1350.782        13.900         1.021         6.715
  YS02001641YS02001644       718.984      1355.061        13.934         1.023         6.731
  YS02001647YS02001649       863.194      1662.261        17.338         1.217         8.323
  YS02006553YS02006556       816.906      1530.117        17.648         1.326         8.828
  YS02006556YS02006558       817.358      1530.976        17.613         1.321         8.804
  YSB6556YSB1171              54.547       108.524         1.086         0.087         0.541
  YS02001907YS02006553       816.725      1529.760        17.693         1.333         8.859
  YS02006558YS02006561      1607.282      3083.309        33.244         2.435        16.395
  YS02001633YS02163601       716.527      1350.531        13.877         1.017         6.699
  YS02001644YS02001647       871.729      1678.634        17.471         1.227         8.384
  YS02001745YS02001748       597.919      1178.619        11.861         0.761         5.723
  YS02001748YS02001751       597.438      1177.830        11.872         0.763         5.733
  YS02001751YS02001754       596.748      1176.713        11.860         0.763         5.728
  YS02001754YS02001757       597.898      1178.540        12.029         0.786         5.836
  YS02001882YS02001884         5.586        10.168         0.103         0.008         0.050
  YS02001884YS02001887         8.267        15.213         0.152         0.011         0.074
  YS02001890YS02001895       827.578      1599.173        15.730         1.199         7.703
  YS02001895YS02001898       827.413      1598.995        15.723         1.198         7.699
  YS02001898YS02001901       827.363      1598.794        15.724         1.198         7.699
  YS02001901YS02001904       826.970      1598.257        15.729         1.199         7.705
  YS02001904YS02001907       827.682      1599.294        15.802         1.208         7.750
  YS02001887YS02001890      1075.748      2094.591        20.306         1.549         9.938
  YS02001652YS02001649       543.716      1053.382        10.831         0.791         5.115
  YS02001655YS02001652       544.148      1054.118        10.844         0.792         5.122
  YS02001658YS02001655       543.654      1053.374        10.757         0.780         5.066
  YS02001661YS02001658       544.056      1054.048        10.767         0.781         5.070
  YS02001664YS02001661       556.418      1073.308        11.081         0.802         5.214
  YSB1154YSB6556              54.073       107.783         1.038         0.081         0.511
  YSB1174YSB1171              37.705        75.538         0.747         0.059         0.369
  YSB1171HS02004479           93.616       186.175         1.960         0.162         0.989
  HS02004881HS02006253       113.898       232.278         2.389         0.170         1.159
  YS02001793JiankangQianchi      1616.324      3097.888        34.129         2.546        16.949
  YS02001757CaochengTiaoxuchi       864.849      1675.354        16.826         1.159         8.131
  WSF200WS02003060          1449.863      2830.280        33.794         2.764        17.218
  1                         2317.078      4305.280        98.597        10.572        56.875
  CC-Pump-1                  265.686       520.699         5.041         0.348         2.428
  CC-Pump-2                  227.599       446.286         4.322         0.298         2.082
  JK-Pump-1                  418.920       809.365         8.609         0.634         4.247
  JK-Pump-2                  768.228      1478.131        15.965         1.178         7.892
  XR-Pump-1                  172.411       296.327        12.123         1.445         7.374
  XR-Pump-2                  158.239       275.888        10.487         1.237         6.340
  XR-Pump-3                  197.686       337.704        14.281         1.710         8.709
  XR-Pump-4                  199.304       346.504        13.298         1.570         8.046
  

  Analysis begun on:  Wed Jun  2 21:24:28 2021
  Analysis ended on:  Wed Jun  2 21:24:31 2021
  Total elapsed time: 00:00:03