
  EPA STORM WATER MANAGEMENT MODEL - VERSION 5.1 (Build 5.3.0.dev0)
  --------------------------------------------------------------

  WARNING 04: minimum elevation drop used for Conduit WS02004404WS02004405
  WARNING 03: negative offset ignored for Link YS02001904YS02001907
  
  *********************************************************
  NOTE: The summary statistics displayed in this report are
  based on results found at every computational time step,  
  not just on results from each reporting time step.
  *********************************************************
  
  ****************
  Analysis Options
  ****************
  Flow Units ............... LPS
  Process Models:
    Rainfall/Runoff ........ YES
    RDII ................... NO
    Snowmelt ............... NO
    Groundwater ............ NO
    Flow Routing ........... YES
    Ponding Allowed ........ NO
    Water Quality .......... YES
  Infiltration Method ...... HORTON
  Flow Routing Method ...... DYNWAVE
  Surcharge Method ......... EXTRAN
  Starting Date ............ 08/28/2015 08:00:00
  Ending Date .............. 08/28/2015 15:50:00
  Antecedent Dry Days ...... 8.0
  Report Time Step ......... 00:01:00
  Wet Time Step ............ 00:01:00
  Dry Time Step ............ 00:01:00
  Routing Time Step ........ 5.00 sec
  Variable Time Step ....... YES
  Maximum Trials ........... 8
  Number of Threads ........ 4
  Head Tolerance ........... 0.001500 m
  
  
  **************************        Volume         Depth
  Runoff Quantity Continuity     hectare-m            mm
  **************************     ---------       -------
  Total Precipitation ......         6.144        13.452
  Evaporation Loss .........         0.000         0.000
  Infiltration Loss ........         1.064         2.328
  Surface Runoff ...........         4.147         9.079
  Final Storage ............         0.935         2.047
  Continuity Error (%) .....        -0.020
  
  
  **************************           COD            SS            TN            TP         NH4-N
  Runoff Quality Continuity             kg            kg            kg            kg            kg
  **************************    ----------    ----------    ----------    ----------    ----------
  Initial Buildup ..........     41378.656     70582.865      1804.177       168.684      1032.807
  Surface Buildup ..........        21.799        40.924         2.400         0.218         1.395
  Wet Deposition ...........         0.000         0.000         0.000         0.000         0.000
  Sweeping Removal .........         0.000         0.000         0.000         0.000         0.000
  Infiltration Loss ........        97.311       184.943         1.849         0.130         0.881
  BMP Removal ..............         0.000         0.000         0.000         0.000         0.000
  Surface Runoff ...........      3769.819      7064.251        72.781         4.964        34.599
  Remaining Buildup ........     37531.916     63371.884      1731.919       163.806       998.709
  Continuity Error (%) .....         0.003         0.004         0.002         0.001         0.001
  
  
  **************************        Volume        Volume
  Flow Routing Continuity        hectare-m      10^6 ltr
  **************************     ---------     ---------
  Dry Weather Inflow .......         0.616         6.165
  Wet Weather Inflow .......         4.145        41.450
  Groundwater Inflow .......         0.000         0.000
  RDII Inflow ..............         0.000         0.000
  External Inflow ..........         0.102         1.024
  External Outflow .........         2.047        20.468
  Flooding Loss ............         2.391        23.908
  Evaporation Loss .........         0.000         0.000
  Exfiltration Loss ........         0.000         0.000
  Initial Stored Volume ....         0.076         0.761
  Final Stored Volume ......         0.649         6.491
  Continuity Error (%) .....        -2.971
  
  
  **************************           COD            SS            TN            TP         NH4-N
  Quality Routing Continuity            kg            kg            kg            kg            kg
  **************************    ----------    ----------    ----------    ----------    ----------
  Dry Weather Inflow .......      1541.201      2465.922       147.955        18.494        92.472
  Wet Weather Inflow .......      3768.834      7062.542        72.760         4.963        34.590
  Groundwater Inflow .......         0.000         0.000         0.000         0.000         0.000
  RDII Inflow ..............         0.000         0.000         0.000         0.000         0.000
  External Inflow ..........       183.418       293.469        17.608         2.201        11.005
  External Outflow .........      2424.966      4204.395       149.019        17.407        89.844
  Flooding Loss ............      2381.611      4440.424        61.786         5.429        32.566
  Exfiltration Loss ........         0.000         0.000         0.000         0.000         0.000
  Mass Reacted .............         0.000         0.000         0.000         0.000         0.000
  Initial Stored Mass ......         0.000         0.000         0.000         0.000         0.000
  Final Stored Mass ........       528.534       905.972        23.861         2.551        13.836
  Continuity Error (%) .....         2.882         2.761         1.535         1.058         1.318
  
  
  *************************
  Highest Continuity Errors
  *************************
  Node JK-storage (-13.76%)
  Node HS02004842 (13.41%)
  Node YS02001884 (11.45%)
  Node HS02004817 (2.53%)
  Node YSB1171 (2.46%)
  
  
  ***************************
  Time-Step Critical Elements
  ***************************
  Link WS02006252WS02006251 (71.84%)
  Link WS02006280WS02006229 (8.84%)
  Link YS02001793JiankangQianchi (5.47%)
  Link WS02006238WS02006235 (2.73%)
  Link YS02006556YS02006558 (2.01%)
  
  
  ********************************
  Highest Flow Instability Indexes
  ********************************
  Link WS02006113WS02006111 (37)
  Link YS02163601YS02164001 (31)
  Link YS02163301YS02001633 (31)
  Link YS02001629YS02163301 (30)
  Link YS02001619YS02001622 (29)
  
  
  *************************
  Routing Time Step Summary
  *************************
  Minimum Time Step           :     0.32 sec
  Average Time Step           :     1.05 sec
  Maximum Time Step           :     5.00 sec
  Percent in Steady State     :    -0.00
  Average Iterations per Step :     4.06
  Percent Not Converging      :    17.26
  
  
  ***************************
  Subcatchment Runoff Summary
  ***************************
  
  ------------------------------------------------------------------------------------------------------------------------------
                            Total      Total      Total      Total     Imperv       Perv      Total       Total     Peak  Runoff
                           Precip      Runon       Evap      Infil     Runoff     Runoff     Runoff      Runoff   Runoff   Coeff
  Subcatchment                 mm         mm         mm         mm         mm         mm         mm    10^6 ltr      LPS
  ------------------------------------------------------------------------------------------------------------------------------
  sub0                      13.45       0.00       0.00       0.63      12.47       0.31      12.77        0.01     3.75   0.950
  sub1                      13.45       0.00       0.00       1.12      11.88       0.36      12.24        0.08    25.66   0.910
  sub2                      13.45       0.00       0.00       4.44       8.39       0.53       8.92        0.08    25.29   0.663
  sub3                      13.45       0.00       0.00       4.56       8.35       0.42       8.77        0.20    55.75   0.652
  sub4                      13.45       0.00       0.00       1.22      11.71       0.26      11.97        0.25    65.52   0.890
  sub5                      13.45       0.00       0.00       0.68      12.41       0.26      12.67        0.14    44.76   0.942
  sub7                      13.45       0.00       0.00       0.86      12.18       0.35      12.53        0.04    14.26   0.931
  sub8                      13.45       0.00       0.00       0.87      12.17       0.34      12.50        0.08    26.26   0.930
  sub9                      13.45       0.00       0.00       0.88      12.17       0.33      12.50        0.06    19.64   0.929
  sub10                     13.45       0.00       0.00       0.78      12.29       0.29      12.58        0.14    44.00   0.935
  sub11                     13.45       0.00       0.00       0.77      12.30       0.31      12.61        0.15    48.45   0.938
  sub12                     13.45       0.00       0.00       1.25      11.66       0.50      12.16        0.11    38.10   0.904
  sub14                     13.45       0.00       0.00       0.88      12.16       0.33      12.49        0.12    38.67   0.929
  sub15                     13.45       0.00       0.00       3.37       9.35       0.66      10.01        0.17    57.01   0.744
  sub16                     13.45       0.00       0.00       3.56       8.97       0.88       9.85        0.10    37.63   0.732
  sub17                     13.45       0.00       0.00       3.47       9.10       0.84       9.94        0.09    30.67   0.739
  sub22                     13.45       0.00       0.00       4.98       7.63       0.81       8.43        0.53   184.54   0.627
  sub23                     13.45       0.00       0.00       4.17       8.43       0.81       9.24        0.44   154.22   0.687
  sub60                     13.45       0.00       0.00       1.53       9.85       0.09       9.93        3.01   438.14   0.738
  sub61                     13.45       0.00       0.00       2.16       9.95       0.12      10.07        3.11   536.45   0.749
  sub62                     13.45       0.00       0.00       0.98      10.84       0.10      10.94        3.36   552.35   0.813
  sub63                     13.45       0.00       0.00       3.77       8.69       0.14       8.83        2.67   492.63   0.656
  sub64                     13.45       0.00       0.00       1.93       9.45       0.09       9.54        2.90   416.72   0.709
  sub65                     13.45       0.00       0.00       1.67       9.61       0.08       9.70        2.98   423.09   0.721
  sub66                     13.45       0.00       0.00       3.81       8.10       0.09       8.18        2.51   380.66   0.608
  sub67                     13.45       0.00       0.00       0.95      11.38       0.13      11.51        3.55   679.52   0.856
  sub68                     13.45       0.00       0.00       1.75      10.45       0.13      10.59        3.26   586.26   0.787
  sub69                     13.45       0.00       0.00       1.83      10.79       0.19      10.98        2.57   544.72   0.816
  sub70                     13.45      11.20       0.00       7.51      14.65       0.88      15.52        3.55   494.81   0.630
  sub71                     13.45       0.00       0.00       0.99      10.58       0.09      10.67        2.52   389.24   0.793
  sub72                     13.45       0.00       0.00       0.89       8.56       0.05       8.61        1.75   189.18   0.640
  1                         13.45      15.11       0.00       1.37      16.56       4.63      21.19        4.98   484.42   0.742
  2                         13.45       0.00       0.00       3.02       3.21       1.96       5.17        2.07   340.45   0.384
  
  
  ****************************
  Subcatchment Washoff Summary
  ****************************
  
  ------------------------------------------------------------------------------------------
                                 COD            SS            TN            TP         NH4-N
  Subcatchment                    kg            kg            kg            kg            kg
  ------------------------------------------------------------------------------------------
  sub0                         2.670         5.197         0.046         0.004         0.022
  sub1                        11.241        22.423         0.210         0.015         0.101
  sub2                         6.894        13.384         0.145         0.010         0.067
  sub3                        16.924        32.573         0.350         0.024         0.161
  sub4                        25.772        51.904         0.510         0.031         0.245
  sub5                        25.778        50.682         0.460         0.035         0.223
  sub7                         5.751        11.638         0.108         0.007         0.052
  sub8                         8.581        17.755         0.171         0.010         0.082
  sub9                         7.353        15.005         0.142         0.009         0.068
  sub10                       21.202        42.223         0.389         0.028         0.188
  sub11                       20.657        41.614         0.386         0.026         0.187
  sub12                       17.724        35.094         0.321         0.024         0.155
  sub14                       15.732        31.800         0.298         0.020         0.144
  sub15                       20.231        39.321         0.389         0.028         0.182
  sub16                       13.129        25.518         0.249         0.019         0.117
  sub17                       12.049        23.208         0.222         0.017         0.105
  sub22                       62.582       119.432         1.186         0.090         0.554
  sub23                       36.683        72.439         0.776         0.051         0.357
  sub60                      243.520       456.962         4.842         0.298         2.321
  sub61                      302.151       564.434         5.627         0.386         2.710
  sub62                      313.722       596.076         6.119         0.388         2.938
  sub63                      223.275       410.850         4.468         0.314         2.075
  sub64                      305.877       553.773         5.626         0.410         2.687
  sub65                      313.037       569.066         5.795         0.415         2.772
  sub66                      176.068       321.340         3.608         0.236         1.687
  sub67                      466.222       877.505         8.365         0.616         4.045
  sub68                      332.037       626.413         6.347         0.429         3.034
  sub69                      298.258       568.561         5.590         0.393         2.674
  sub70                      502.897       962.303        10.037         0.699         4.710
  sub71                      206.745       396.330         4.242         0.246         2.030
  sub72                      164.385       293.107         3.069         0.210         1.476
  1                          349.075       671.606         7.102         0.495         3.297
  2                           42.749        75.577         1.214         0.073         0.518
  ------------------------------------------------------------------------------------------
  System                    4570.974      8595.115        88.408         6.057        41.983
  
  
  ******************
  Node Depth Summary
  ******************
  
  ---------------------------------------------------------------------------------
                                 Average  Maximum  Maximum  Time of Max    Reported
                                   Depth    Depth      HGL   Occurrence   Max Depth
  Node                 Type       Meters   Meters   Meters  days hr:min      Meters
  ---------------------------------------------------------------------------------
  WS02001211           JUNCTION     0.77     0.85     5.69     0  03:07        0.85
  WS02001212           JUNCTION     0.49     0.58     5.64     0  03:06        0.58
  WS02001213           JUNCTION     0.73     0.85     5.62     0  03:05        0.85
  WS02003069           JUNCTION     0.54     0.72     5.30     0  03:05        0.72
  WS02003072           JUNCTION     0.60     0.76     5.13     0  03:06        0.76
  WS02003073           JUNCTION     0.36     0.48     4.54     0  03:06        0.48
  WS02003060           JUNCTION     0.47     0.63     5.57     0  03:05        0.63
  WS02003066           JUNCTION     0.26     0.39     5.94     0  03:04        0.39
  WS02003059           JUNCTION     0.78     0.91     5.60     0  03:05        0.91
  WS02003067           JUNCTION     0.63     0.82     6.14     0  03:03        0.82
  WS02004401           JUNCTION     0.76     1.24     7.24     0  03:02        1.23
  WS02004402           JUNCTION     0.79     1.23     7.19     0  03:02        1.22
  WS02004403           JUNCTION     0.81     1.20     7.13     0  03:02        1.20
  WS02004404           JUNCTION     0.88     1.24     7.09     0  03:02        1.24
  WS02004406           JUNCTION     0.88     1.17     7.00     0  03:02        1.16
  WS02004409           JUNCTION     0.58     0.96     6.73     0  03:03        0.96
  WS02004410           JUNCTION     0.59     0.95     6.67     0  03:03        0.95
  WS02004411           JUNCTION     0.60     0.93     6.61     0  03:03        0.93
  WS02004412           JUNCTION     0.61     0.90     6.54     0  03:03        0.90
  WS02004413           JUNCTION     0.77     1.02     6.49     0  03:03        1.02
  WS02004405           JUNCTION     0.87     1.22     7.07     0  03:02        1.22
  WS02006109           JUNCTION     0.86     1.66     8.28     0  03:02        1.64
  WS02006110           JUNCTION     0.83     1.45     8.04     0  03:02        1.44
  WS02006111           JUNCTION     0.26     0.89     7.59     0  03:02        0.88
  WS02006112           JUNCTION     0.95     1.56     7.45     0  03:02        1.55
  WS02006113           JUNCTION     0.40     0.93     7.82     0  03:02        0.92
  WS02006115           JUNCTION     0.66     1.22     7.36     0  03:02        1.21
  WS02006116           JUNCTION     0.74     1.26     7.30     0  03:02        1.26
  WS02006230           JUNCTION     0.89     1.88     8.62     0  03:02        1.87
  WS02006231           JUNCTION     0.63     1.53     8.65     0  03:02        1.52
  WS02006232           JUNCTION     0.78     1.63     8.67     0  03:02        1.62
  WS02006234           JUNCTION     0.73     1.52     8.68     0  03:02        1.52
  WS02006235           JUNCTION     0.77     1.54     8.70     0  03:03        1.52
  WS02006238           JUNCTION     0.80     1.56     8.71     0  03:02        1.55
  WS02006240           JUNCTION     0.71     1.49     8.78     0  05:12        1.39
  WS02006242           JUNCTION     0.76     1.55     8.82     0  05:12        1.42
  WS02006243           JUNCTION     0.65     1.28     8.70     0  03:01        1.26
  WS02006245           JUNCTION     0.62     1.22     8.70     0  03:02        1.21
  WS02006247           JUNCTION     0.63     1.20     8.70     0  03:03        1.19
  WS02006248           JUNCTION     0.57     1.10     8.69     0  02:57        1.10
  WS02006249           JUNCTION     0.59     1.09     8.69     0  02:54        1.09
  WS02006239           JUNCTION     0.76     1.49     8.70     0  03:02        1.48
  WS02006251           JUNCTION     0.56     1.37     9.04     0  02:54        1.20
  WS02006252           JUNCTION     0.35     0.88     9.12     0  04:21        0.75
  WS02006253           JUNCTION     0.59     1.46     9.10     0  04:21        1.23
  WS02006256           JUNCTION     1.82     2.35     9.28     0  00:12        2.35
  WS02004138           JUNCTION     0.19     0.20     7.45     0  00:00        0.19
  WS02004139           JUNCTION     0.72     0.79     5.70     0  03:07        0.79
  WS02004407           JUNCTION     0.26     0.40     6.71     0  03:03        0.40
  WS02006228           JUNCTION     0.88     1.83     8.48     0  03:02        1.82
  WS02006229           JUNCTION     0.87     1.90     8.59     0  03:02        1.89
  WS02006280           JUNCTION     0.07     0.30     8.57     0  03:05        0.30
  WS02006284           JUNCTION     0.37     0.65     9.04     0  03:02        0.64
  WS02006287           JUNCTION     0.10     0.39     9.34     0  03:02        0.39
  WSF200               JUNCTION     0.26     0.44     5.67     0  03:04        0.44
  HS02004901           JUNCTION     0.13     0.38    10.20     0  03:01        0.37
  HS02004881           JUNCTION     0.01     0.05     9.08     0  03:01        0.05
  HS02004876           JUNCTION     0.04     0.16     9.19     0  03:01        0.16
  HS02004870           JUNCTION     0.02     0.09     9.38     0  03:01        0.09
  HS02004862           JUNCTION     0.02     0.11     9.49     0  03:01        0.11
  HS02004856           JUNCTION     0.08     0.15     9.58     0  03:01        0.15
  HS02004852           JUNCTION     0.01     0.07     9.59     0  03:02        0.07
  HS02004848           JUNCTION     0.01     0.07     9.67     0  03:01        0.07
  HS02004842           JUNCTION     0.34     0.40     9.67     0  03:01        0.40
  HS02004837           JUNCTION     0.03     0.09     9.67     0  03:01        0.09
  HS02004830           JUNCTION     0.04     0.10     9.57     0  03:02        0.10
  HS02004824           JUNCTION     0.02     0.13     9.53     0  03:02        0.13
  HS02004817           JUNCTION     0.44     0.69     9.54     0  03:02        0.69
  HS02004807           JUNCTION     0.13     0.36     9.53     0  03:02        0.36
  HS02004802           JUNCTION     0.16     0.39     9.52     0  03:02        0.39
  HS02004799           JUNCTION     0.12     0.46     9.68     0  03:01        0.46
  HS02004792           JUNCTION     0.03     0.22     9.74     0  03:01        0.21
  HS02004788           JUNCTION     0.03     0.16    10.05     0  03:02        0.16
  HS02004785           JUNCTION     0.05     0.25    10.15     0  03:02        0.25
  HS02004777           JUNCTION     0.15     0.39    10.19     0  03:01        0.39
  HS02004770           JUNCTION     0.12     0.37    10.20     0  03:01        0.36
  HS02004480           JUNCTION     0.08     0.38     9.62     0  03:01        0.38
  HS02004479           JUNCTION     0.12     0.42     9.62     0  03:01        0.42
  HS02004478           JUNCTION     0.06     0.28     9.50     0  03:01        0.28
  YS02001745           JUNCTION     0.75     0.94     8.46     0  03:00        0.94
  YS02001748           JUNCTION     1.15     1.71     8.79     0  02:32        1.37
  YS02001751           JUNCTION     1.33     1.60     8.48     0  02:36        1.56
  YS02001754           JUNCTION     1.59     1.84     8.44     0  03:00        1.82
  YS02001762           JUNCTION     1.79     2.04     8.44     0  03:00        2.02
  YS02001765           JUNCTION     1.74     1.99     8.44     0  02:59        1.97
  YS02001767           JUNCTION     1.70     1.94     8.43     0  03:00        1.93
  YS02001770           JUNCTION     1.70     1.93     8.43     0  03:00        1.92
  YS02001774           JUNCTION     1.77     1.99     8.41     0  02:30        1.98
  YS02001779           JUNCTION     1.51     1.68     8.37     0  02:30        1.68
  YS02001882           JUNCTION     0.57     1.63     8.35     0  03:00        1.63
  YS02001884           JUNCTION     0.67     1.74     8.35     0  02:59        1.73
  YS02001759           JUNCTION     1.82     2.08     8.44     0  02:54        2.06
  YS02001887           JUNCTION     0.74     1.82     8.36     0  03:00        1.81
  YS02001890           JUNCTION     0.77     1.81     8.32     0  02:50        1.81
  YS02001898           JUNCTION     0.54     1.56     8.30     0  02:52        1.56
  YS02001901           JUNCTION     0.66     1.68     8.29     0  02:57        1.67
  YS02001904           JUNCTION     0.64     1.64     8.27     0  03:05        1.63
  YS02001907           JUNCTION     0.97     1.96     8.25     0  02:50        1.96
  YS02001910           JUNCTION     0.76     1.78     8.29     0  02:52        1.78
  YS02001915           JUNCTION     0.55     1.60     8.32     0  02:51        1.58
  YS02001918           JUNCTION     0.30     1.29     8.35     0  02:51        1.27
  YS02001619           JUNCTION     1.29     1.55     8.48     0  02:34        1.48
  YS02001629           JUNCTION     1.65     1.85     8.40     0  02:34        1.84
  YS02001641           JUNCTION     1.75     1.94     8.38     0  02:57        1.93
  YS02001644           JUNCTION     1.75     1.92     8.35     0  02:39        1.92
  YS02001652           JUNCTION     1.60     2.16     8.76     0  02:47        1.87
  YS02001655           JUNCTION     1.36     2.20     9.05     0  02:25        1.66
  YS02001920           JUNCTION     0.40     1.36     8.37     0  02:51        1.34
  YS02001923           JUNCTION     0.24     1.12     8.38     0  02:51        1.11
  YS02001926           JUNCTION     0.29     0.94     8.39     0  02:51        0.94
  YS02001929           JUNCTION     0.17     0.71     8.40     0  02:52        0.71
  YS02001658           JUNCTION     1.09     2.11     9.25     0  02:47        1.42
  YS02001661           JUNCTION     0.85     2.46     9.86     0  02:47        1.20
  YS02001664           JUNCTION     0.38     0.57     8.50     0  02:42        0.57
  YS02001622           JUNCTION     1.32     1.55     8.46     0  02:34        1.50
  YS02001633           JUNCTION     1.74     1.95     8.40     0  02:57        1.94
  YS02001649           JUNCTION     1.80     2.05     8.44     0  02:43        2.03
  YS02001757           JUNCTION     1.92     2.17     8.43     0  04:13        2.15
  YS02001895           JUNCTION     0.53     1.57     8.31     0  02:58        1.56
  YS02001625           JUNCTION     1.60     1.78     8.38     0  02:32        1.78
  YS02163301           JUNCTION     1.68     1.89     8.40     0  02:57        1.88
  YS02163601           JUNCTION     1.79     1.99     8.39     0  02:57        1.98
  YS02164001           JUNCTION     1.73     1.92     8.38     0  02:59        1.91
  YS02001647           JUNCTION     1.58     1.80     8.41     0  02:44        1.78
  YSB1154              JUNCTION     0.26     0.57     9.62     0  03:01        0.57
  YSB6556              JUNCTION     0.15     0.45     9.62     0  03:02        0.45
  YSB1174              JUNCTION     0.21     0.52     9.62     0  03:01        0.51
  YSB1171              JUNCTION     0.41     0.72     9.62     0  03:01        0.72
  YS02006553           JUNCTION     0.97     1.99     8.27     0  03:02        1.96
  YS02006561           JUNCTION     0.32     1.09     7.75     0  03:06        1.08
  YS02006556           JUNCTION     0.94     1.99     8.30     0  03:02        1.92
  YS02006558           JUNCTION     0.98     2.04     8.31     0  03:02        1.96
  YS02001783           JUNCTION     0.53     1.47     7.61     0  03:06        1.47
  YS02001784           JUNCTION     0.55     1.42     7.49     0  03:04        1.41
  YS02001786           JUNCTION     0.48     1.46     7.49     0  02:23        1.26
  YS02001788           JUNCTION     0.40     1.55     7.52     0  02:23        1.12
  YS02001790           JUNCTION     0.51     1.96     7.60     0  04:52        1.28
  YS02001791           JUNCTION     0.46     2.72     8.19     0  04:51        1.27
  YS02001793           JUNCTION     0.63     2.60     7.43     0  04:49        1.79
  WSC                  OUTFALL      0.36     0.48     1.15     0  03:07        0.48
  JK-storage           STORAGE      2.69     5.80     6.60     0  02:22        5.80
  CC-storage           STORAGE      1.18     1.41     8.41     0  03:17        1.41
  XR-storage           STORAGE      6.83     7.72     5.72     0  02:55        7.72
  
  
  *******************
  Node Inflow Summary
  *******************
  
  -------------------------------------------------------------------------------------------------
                                  Maximum  Maximum                  Lateral       Total        Flow
                                  Lateral    Total  Time of Max      Inflow      Inflow     Balance
                                   Inflow   Inflow   Occurrence      Volume      Volume       Error
  Node                 Type           LPS      LPS  days hr:min    10^6 ltr    10^6 ltr     Percent
  -------------------------------------------------------------------------------------------------
  WS02001211           JUNCTION      7.35   390.30     0  03:16       0.207        9.97       0.412
  WS02001212           JUNCTION      0.00   393.22     0  03:16           0        9.93       0.228
  WS02001213           JUNCTION      0.00   395.75     0  03:16           0         9.9       0.319
  WS02003069           JUNCTION      0.32  1333.06     0  03:05     0.00902        20.6       0.191
  WS02003072           JUNCTION      0.00  1332.73     0  03:05           0        20.5       0.224
  WS02003073           JUNCTION      1.82  1334.62     0  03:06      0.0514        20.5       0.262
  WS02003060           JUNCTION     16.53  1332.98     0  03:04       0.466        20.6       0.181
  WS02003066           JUNCTION      0.00   938.30     0  03:04           0        10.3       0.053
  WS02003059           JUNCTION      0.00   398.65     0  03:15           0        9.88       0.428
  WS02003067           JUNCTION      0.00   937.79     0  03:04           0        10.3       0.106
  WS02004401           JUNCTION      0.00   939.98     0  03:02           0        10.6       0.236
  WS02004402           JUNCTION      0.00   939.99     0  03:02           0        10.6       0.219
  WS02004403           JUNCTION      0.00   939.88     0  03:02           0        10.5       0.195
  WS02004404           JUNCTION      0.16   940.99     0  03:02     0.00457        10.5       0.143
  WS02004406           JUNCTION      0.00   939.98     0  03:02           0        10.5       0.349
  WS02004409           JUNCTION      0.00   939.29     0  03:03           0        10.4       0.204
  WS02004410           JUNCTION      0.00   938.08     0  03:03           0        10.4       0.224
  WS02004411           JUNCTION      0.00   937.63     0  03:03           0        10.4       0.225
  WS02004412           JUNCTION      0.00   937.22     0  03:03           0        10.4       0.237
  WS02004413           JUNCTION      0.00   937.73     0  03:04           0        10.3       0.338
  WS02004405           JUNCTION      0.04   940.85     0  03:02     0.00107        10.5       0.215
  WS02006109           JUNCTION      1.23   915.48     0  03:03      0.0347        10.6       0.176
  WS02006110           JUNCTION      0.00   915.47     0  03:02           0        10.6       0.217
  WS02006111           JUNCTION      0.00   915.78     0  03:03           0        10.6       0.050
  WS02006112           JUNCTION     30.67   939.25     0  03:02      0.0853        10.7       0.305
  WS02006113           JUNCTION      0.00   915.41     0  03:02           0        10.6       0.123
  WS02006115           JUNCTION      0.00   939.54     0  03:02           0        10.6       0.235
  WS02006116           JUNCTION      0.00   940.00     0  03:02           0        10.6       0.211
  WS02006230           JUNCTION     10.28   534.76     0  07:00        0.29        8.21       0.200
  WS02006231           JUNCTION      0.00   524.10     0  07:00           0        7.94       0.178
  WS02006232           JUNCTION      0.00   524.08     0  07:00           0        7.96       0.230
  WS02006234           JUNCTION      0.00   524.08     0  07:00           0        7.97       0.141
  WS02006235           JUNCTION      0.00   523.85     0  07:00           0        8.04       0.147
  WS02006238           JUNCTION      0.00   353.43     0  06:32           0        4.54       0.211
  WS02006240           JUNCTION      0.00   359.06     0  06:31           0        4.51       0.366
  WS02006242           JUNCTION      0.00   363.51     0  06:31           0         4.5       0.412
  WS02006243           JUNCTION      0.00   368.59     0  06:31           0         4.5       0.326
  WS02006245           JUNCTION      0.00   372.85     0  06:31           0        4.51       0.307
  WS02006247           JUNCTION      0.00   376.96     0  06:31           0        4.52       0.218
  WS02006248           JUNCTION      0.00   381.35     0  06:30           0        4.52       0.151
  WS02006249           JUNCTION      0.00   536.85     0  03:00           0        4.96       0.252
  WS02006239           JUNCTION      0.00   354.83     0  06:32           0        4.52       0.257
  WS02006251           JUNCTION      0.08   536.30     0  03:00     0.00217        5.02       0.206
  WS02006252           JUNCTION      0.00   400.00     0  04:20           0         4.5       0.010
  WS02006253           JUNCTION      3.75   143.72     0  03:01      0.0103       0.528       0.932
  WS02006256           JUNCTION      0.00   983.00     0  02:30           0        10.9      -0.002
  WS02004138           JUNCTION      0.00   380.00     0  00:00           0         9.8       0.067
  WS02004139           JUNCTION      0.32   394.45     0  00:00     0.00905        9.81       0.471
  WS02004407           JUNCTION      0.00   939.88     0  03:02           0        10.4       0.091
  WS02006228           JUNCTION      0.00   914.14     0  03:03           0        10.6       0.133
  WS02006229           JUNCTION      0.00   916.68     0  03:02           0        10.6       0.126
  WS02006280           JUNCTION      0.00   680.16     0  03:02           0        2.43       0.011
  WS02006284           JUNCTION      0.10   679.03     0  03:02      0.0027        2.43       0.046
  WS02006287           JUNCTION      0.00   677.67     0  03:02           0        2.43       0.031
  WSF200               JUNCTION      0.00   938.45     0  03:04           0        10.3       0.054
  HS02004901           JUNCTION     37.63    37.63     0  03:01       0.103       0.103       1.740
  HS02004881           JUNCTION     14.26   140.54     0  03:01      0.0422       0.463       0.103
  HS02004876           JUNCTION     25.66   127.64     0  03:01      0.0814       0.422       0.131
  HS02004870           JUNCTION     26.26   103.59     0  03:01      0.0799        0.34       0.035
  HS02004862           JUNCTION     25.49    79.37     0  03:01      0.0888       0.261       0.068
  HS02004856           JUNCTION     19.64    55.40     0  03:01      0.0601       0.173       0.844
  HS02004852           JUNCTION      0.00    37.84     0  03:01           0       0.113       0.053
  HS02004848           JUNCTION     55.75    55.75     0  03:01       0.197       0.197       0.028
  HS02004842           JUNCTION      0.00    16.84     0  03:01           0       0.097      15.493
  HS02004837           JUNCTION     50.35    65.69     0  03:01       0.318       0.402       0.204
  HS02004830           JUNCTION      0.15    64.79     0  03:01     0.00423       0.392       0.316
  HS02004824           JUNCTION     65.57   128.43     0  03:01       0.251       0.642       0.086
  HS02004817           JUNCTION      0.60   124.47     0  03:01      0.0169       0.658       2.600
  HS02004807           JUNCTION     48.45   165.69     0  03:01       0.147       0.788       0.554
  HS02004802           JUNCTION      0.00   165.31     0  03:04           0       0.785       0.506
  HS02004799           JUNCTION     38.67   446.05     0  03:01       0.119        1.42       0.191
  HS02004792           JUNCTION    184.82   411.78     0  03:01        0.54         1.3       0.033
  HS02004788           JUNCTION     58.68   233.43     0  03:02       0.219       0.758       0.052
  HS02004785           JUNCTION      0.15   182.21     0  03:01     0.00423        0.54       0.093
  HS02004777           JUNCTION      0.03   185.01     0  03:01    0.000846       0.541       0.972
  HS02004770           JUNCTION    154.22   188.94     0  03:01       0.441       0.542       0.577
  HS02004480           JUNCTION      0.00   517.23     0  03:01           0        1.66       0.069
  HS02004479           JUNCTION      0.00    75.47     0  03:02           0       0.258       0.286
  HS02004478           JUNCTION      0.00   677.09     0  03:02           0        2.43       0.011
  YS02001745           JUNCTION    438.14   438.14     0  03:01        3.01        3.02       0.361
  YS02001748           JUNCTION      0.04   578.17     0  02:32     0.00127        3.01       0.705
  YS02001751           JUNCTION      0.01   443.52     0  03:01     0.00031        2.98       0.784
  YS02001754           JUNCTION      0.26   442.57     0  03:01     0.00733        2.96       0.851
  YS02001762           JUNCTION      0.00   317.06     0  02:43           0        1.99       1.081
  YS02001765           JUNCTION      0.00   317.70     0  02:43           0        1.99       1.240
  YS02001767           JUNCTION      0.54   317.07     0  02:43      0.0151        2.02       1.813
  YS02001770           JUNCTION    552.50   648.73     0  03:01        3.37        3.82       0.842
  YS02001774           JUNCTION      0.00   650.48     0  03:01           0        2.23       1.144
  YS02001779           JUNCTION      0.01   651.61     0  03:01    0.000141         2.2       0.715
  YS02001882           JUNCTION      0.00    10.94     0  02:43           0      0.0183      13.768
  YS02001884           JUNCTION      0.00    20.26     0  02:35           0      0.0547      12.926
  YS02001759           JUNCTION    536.49   622.87     0  02:43        3.11        4.62       0.495
  YS02001887           JUNCTION    679.97   679.97     0  03:01        3.56        3.59       0.243
  YS02001890           JUNCTION      0.00   680.00     0  03:01           0        3.55       0.265
  YS02001898           JUNCTION      0.00   517.14     0  02:57           0        3.45       0.094
  YS02001901           JUNCTION      0.00   517.54     0  03:02           0        3.45       0.201
  YS02001904           JUNCTION      0.00   517.40     0  03:03           0        3.44       0.185
  YS02001907           JUNCTION      0.00  1111.59     0  03:01           0        7.77       0.324
  YS02001910           JUNCTION      0.00   595.38     0  03:01           0        4.34       0.283
  YS02001915           JUNCTION    389.26   594.97     0  03:01        2.52        4.35       0.137
  YS02001918           JUNCTION      0.00   260.09     0  02:52           0        1.84       0.080
  YS02001619           JUNCTION    380.66   380.66     0  03:01        2.51        2.51       0.486
  YS02001629           JUNCTION      0.00   196.05     0  02:39           0        1.59       1.847
  YS02001641           JUNCTION      0.00   413.19     0  02:39           0        4.45       0.482
  YS02001644           JUNCTION    416.76  1492.34     0  03:01         2.9        10.5       0.248
  YS02001652           JUNCTION      0.00   501.38     0  03:01           0        2.63       0.898
  YS02001655           JUNCTION      0.15   501.48     0  03:01     0.00434        2.65       0.908
  YS02001920           JUNCTION      2.87   259.88     0  02:52      0.0809        1.84       0.160
  YS02001923           JUNCTION      0.04   229.61     0  02:52     0.00106        1.76       0.051
  YS02001926           JUNCTION      0.05   200.49     0  03:02     0.00147        1.75       0.199
  YS02001929           JUNCTION    189.18   189.18     0  03:01        1.75        1.75       0.036
  YS02001658           JUNCTION      0.00   590.16     0  02:29           0        2.69       0.812
  YS02001661           JUNCTION      0.00   659.73     0  02:42           0        3.16      -0.224
  YS02001664           JUNCTION    492.63   492.63     0  03:01        2.67        3.15       0.203
  YS02001622           JUNCTION      0.00   380.89     0  03:01           0         2.5       1.296
  YS02001633           JUNCTION    423.29   423.29     0  03:01        2.99        4.52       0.716
  YS02001649           JUNCTION      0.00   873.76     0  02:40           0        6.01       0.621
  YS02001757           JUNCTION      0.00  1680.71     0  02:40           0        9.81       0.944
  YS02001895           JUNCTION      0.00   517.70     0  03:03           0        3.45       0.147
  YS02001625           JUNCTION      0.00   407.29     0  03:01           0        2.47       1.602
  YS02163301           JUNCTION      0.00   208.20     0  02:32           0        1.57       1.565
  YS02163601           JUNCTION      0.11   412.79     0  02:39      0.0031        4.48       0.680
  YS02164001           JUNCTION      0.00   412.96     0  02:39           0        4.46       0.454
  YS02001647           JUNCTION      0.00   680.38     0  03:01           0        5.11       0.555
  YSB1154              JUNCTION     44.76    44.76     0  03:01       0.144       0.144       1.017
  YSB6556              JUNCTION      0.00    43.27     0  03:01           0       0.145       0.869
  YSB1174              JUNCTION     38.10    38.10     0  03:01       0.106       0.107       1.221
  YSB1171              JUNCTION      0.00    76.92     0  03:01           0       0.257       2.525
  YS02006553           JUNCTION      0.00   718.53     0  02:51           0        6.87       0.230
  YS02006561           JUNCTION      0.00  1150.59     0  03:00           0        10.1       0.006
  YS02006556           JUNCTION      0.00   718.53     0  02:51           0        6.87       0.170
  YS02006558           JUNCTION    587.14  1151.95     0  03:00        3.28        10.1       0.053
  YS02001783           JUNCTION      0.00  1150.83     0  03:00           0        10.1       0.024
  YS02001784           JUNCTION      1.06  1151.58     0  03:00      0.0299        10.1       0.037
  YS02001786           JUNCTION      0.06  1151.67     0  03:00     0.00159        10.1       0.035
  YS02001788           JUNCTION      0.07  1152.23     0  03:00       0.002        10.1       0.022
  YS02001790           JUNCTION      0.15  1159.20     0  02:55     0.00437        10.1       0.022
  YS02001791           JUNCTION      0.00  1270.80     0  02:55           0        10.1       0.005
  YS02001793           JUNCTION      0.00  1224.25     0  02:55           0        10.1      -0.013
  WSC                  OUTFALL       0.00  1334.73     0  03:07           0        20.5       0.000
  JK-storage           STORAGE       0.00  1180.10     0  02:51           0        10.3     -12.098
  CC-storage           STORAGE       0.00  1680.16     0  02:40           0        8.17       0.781
  XR-storage           STORAGE    1024.87  1024.87     0  03:01        12.7        13.3       0.002
  
  
  **********************
  Node Surcharge Summary
  **********************
  
  Surcharging occurs when water rises above the top of the highest conduit.
  ---------------------------------------------------------------------
                                               Max. Height   Min. Depth
                                   Hours       Above Crown    Below Rim
  Node                 Type      Surcharged         Meters       Meters
  ---------------------------------------------------------------------
  WS02004401           JUNCTION        0.53          0.237        1.423
  WS02004402           JUNCTION        0.59          0.228        1.512
  WS02004403           JUNCTION        0.59          0.202        1.828
  WS02004404           JUNCTION        0.85          0.244        2.536
  WS02004406           JUNCTION        0.74          0.166        2.284
  WS02004413           JUNCTION        0.20          0.023        2.177
  WS02004405           JUNCTION        0.80          0.221        2.579
  WS02006109           JUNCTION        4.41          0.839        0.981
  WS02006110           JUNCTION        2.28          0.542        1.308
  WS02006111           JUNCTION        0.13          0.076        1.794
  WS02006112           JUNCTION        2.77          0.563        1.117
  WS02006113           JUNCTION        0.16          0.125        1.805
  WS02006115           JUNCTION        0.37          0.209        2.041
  WS02006116           JUNCTION        0.39          0.203        2.087
  WS02006230           JUNCTION        1.83          0.798        0.772
  WS02006231           JUNCTION        2.60          0.816        0.714
  WS02006232           JUNCTION        4.11          0.927        0.553
  WS02006234           JUNCTION        3.77          0.804        0.436
  WS02006235           JUNCTION        3.89          0.829        0.461
  WS02006238           JUNCTION        3.95          0.842        0.588
  WS02006240           JUNCTION        3.63          0.777        0.613
  WS02006242           JUNCTION        3.69          0.820        0.000
  WS02006243           JUNCTION        2.84          0.567        0.203
  WS02006245           JUNCTION        2.54          0.506        0.344
  WS02006247           JUNCTION        2.56          0.488        0.272
  WS02006248           JUNCTION        2.05          0.380        0.000
  WS02006249           JUNCTION        2.17          0.390        0.000
  WS02006239           JUNCTION        3.73          0.750        0.540
  WS02006251           JUNCTION        1.13          0.341        0.839
  WS02006252           JUNCTION        2.36          0.481        0.619
  WS02006253           JUNCTION        1.17          0.415        2.065
  WS02006256           JUNCTION        6.78          2.050        0.000
  WS02006228           JUNCTION        4.39          1.001        1.199
  YS02001748           JUNCTION        5.23          0.631        0.559
  YS02001751           JUNCTION        5.36          0.601        0.599
  YS02001754           JUNCTION        5.58          0.786        0.364
  YS02001762           JUNCTION        5.75          1.041        0.109
  YS02001765           JUNCTION        5.72          0.987        0.113
  YS02001767           JUNCTION        5.70          0.943        0.087
  YS02001770           JUNCTION        5.68          0.903        0.017
  YS02001774           JUNCTION        5.74          0.991        0.059
  YS02001779           JUNCTION        5.56          0.680        0.000
  YS02001882           JUNCTION        1.06          0.633        0.197
  YS02001884           JUNCTION        1.09          0.675        0.195
  YS02001759           JUNCTION        5.78          1.076        0.134
  YS02001887           JUNCTION        1.16          0.769        0.181
  YS02001890           JUNCTION        1.19          0.760        0.000
  YS02001898           JUNCTION        1.02          0.532        0.208
  YS02001901           JUNCTION        1.13          0.678        0.192
  YS02001904           JUNCTION        1.10          0.640        0.210
  YS02001907           JUNCTION        1.89          0.950        0.000
  YS02001910           JUNCTION        1.24          0.785        0.315
  YS02001915           JUNCTION        1.04          0.602        0.398
  YS02001918           JUNCTION        0.85          0.286        0.524
  YS02001619           JUNCTION        5.36          0.551        0.059
  YS02001629           JUNCTION        5.38          0.470        0.000
  YS02001641           JUNCTION        5.73          0.938        0.162
  YS02001644           JUNCTION        5.73          0.920        0.000
  YS02001652           JUNCTION        5.61          1.130        0.000
  YS02001655           JUNCTION        5.39          1.200        0.000
  YS02001920           JUNCTION        0.88          0.363        0.777
  YS02001658           JUNCTION        5.25          1.109        0.191
  YS02001661           JUNCTION        0.15          1.390        0.000
  YS02001622           JUNCTION        5.41          0.552        0.068
  YS02001633           JUNCTION        5.71          0.928        0.132
  YS02001649           JUNCTION        5.75          1.050        0.000
  YS02001757           JUNCTION        5.86          1.172        0.038
  YS02001895           JUNCTION        1.03          0.566        0.184
  YS02001625           JUNCTION        5.64          0.780        0.000
  YS02163301           JUNCTION        5.69          0.885        0.145
  YS02163601           JUNCTION        5.75          0.991        0.089
  YS02164001           JUNCTION        5.72          0.920        0.180
  YS02001647           JUNCTION        5.62          0.804        0.096
  YS02006553           JUNCTION        1.98          0.989        0.201
  YS02006561           JUNCTION        0.86          0.287        0.863
  YS02006556           JUNCTION        1.46          0.949        0.401
  YS02006558           JUNCTION        1.42          0.942        0.458
  YS02001783           JUNCTION        1.30          0.674        0.926
  YS02001784           JUNCTION        1.26          0.622        0.868
  YS02001786           JUNCTION        1.08          0.659        0.771
  YS02001788           JUNCTION        0.79          0.748        0.732
  YS02001790           JUNCTION        1.50          1.157        0.000
  YS02001791           JUNCTION        1.59          1.920        0.000
  YS02001793           JUNCTION        1.94          1.602        0.998
  
  
  *********************
  Node Flooding Summary
  *********************
  
  Flooding refers to all water that overflows a node, whether it ponds or not.
  --------------------------------------------------------------------------
                                                             Total   Maximum
                                 Maximum   Time of Max       Flood    Ponded
                        Hours       Rate    Occurrence      Volume     Depth
  Node                 Flooded       LPS   days hr:min    10^6 ltr    Meters
  --------------------------------------------------------------------------
  WS02006242              0.01     60.97      0  05:12       0.000     0.000
  WS02006248              0.07     14.53      0  03:03       0.002     0.000
  WS02006249              1.06    423.46      0  03:01       0.424     0.000
  WS02006256              4.39    826.99      0  02:59       7.299     0.000
  YS02001779              2.76    650.92      0  03:01       2.185     0.000
  YS02001890              0.34    164.10      0  03:01       0.085     0.000
  YS02001907              0.72    640.13      0  03:04       0.888     0.000
  YS02001629              0.01     11.03      0  02:34       0.000     0.000
  YS02001644              4.26   1492.08      0  03:01       8.619     0.000
  YS02001652              0.01      5.55      0  02:47       0.000     0.000
  YS02001655              0.01    213.80      0  02:25       0.000     0.000
  YS02001661              0.01    115.74      0  02:47       0.000     0.000
  YS02001649              0.02     31.73      0  02:53       0.001     0.000
  YS02001625              1.40    407.20      0  03:01       0.855     0.000
  YS02001790              0.01    112.82      0  06:44       0.000     0.000
  YS02001791              0.01    192.93      0  04:51       0.000     0.000
  JK-storage              0.75    666.47      0  03:10       0.822     0.000
  XR-storage              3.52    644.77      0  03:01       2.728     0.000
  
  
  **********************
  Storage Volume Summary
  **********************
  
  --------------------------------------------------------------------------------------------------
                         Average     Avg  Evap Exfil       Maximum     Max    Time of Max    Maximum
                          Volume    Pcnt  Pcnt  Pcnt        Volume    Pcnt     Occurrence    Outflow
  Storage Unit           1000 m3    Full  Loss  Loss       1000 m3    Full    days hr:min        LPS
  --------------------------------------------------------------------------------------------------
  JK-storage               0.135      46     0     0         0.291     100       0  02:22     983.00
  CC-storage               3.280      21     0     0         3.938      25       0  03:17     400.00
  XR-storage               0.819      88     0     0         0.926     100       0  02:55     380.00
  
  
  ***********************
  Outfall Loading Summary
  ***********************
  
  ---------------------------------------------------------------------------------------------------------------------------------
                         Flow       Avg       Max       Total         Total         Total         Total         Total         Total
                         Freq      Flow      Flow      Volume           COD            SS            TN            TP         NH4-N
  Outfall Node           Pcnt       LPS       LPS    10^6 ltr            kg            kg            kg            kg            kg
  ---------------------------------------------------------------------------------------------------------------------------------
  WSC                  100.00    829.24   1334.73      20.468      2425.208      4204.813       149.036        17.409        89.854
  ---------------------------------------------------------------------------------------------------------------------------------
  System               100.00    829.24   1334.73      20.468      2425.208      4204.813       149.036        17.409        89.854
  
  
  ********************
  Link Flow Summary
  ********************
  
  -----------------------------------------------------------------------------
                                 Maximum  Time of Max   Maximum    Max/    Max/
                                  |Flow|   Occurrence   |Veloc|    Full    Full
  Link                 Type          LPS  days hr:min     m/sec    Flow   Depth
  -----------------------------------------------------------------------------
  WS02003066WSF200     CONDUIT    938.45     0  03:04      3.00    0.16    0.32
  WS02006287WS02006284 CONDUIT    678.94     0  03:02      2.38    0.31    0.39
  WS02006284WS02006280 CONDUIT    680.16     0  03:02      2.62    0.28    0.37
  WS02006280WS02006229 CONDUIT    680.29     0  03:02      3.84    0.15    0.50
  WS02006229WS02006228 CONDUIT    914.14     0  03:03      1.82    3.03    1.00
  WS02006256WS02006235 CONDUIT    264.10     0  00:12      3.74    2.80    1.00
  WS02006253WS02006251 CONDUIT    144.22     0  03:01      0.56    0.43    1.00
  WS02006252WS02006251 CONDUIT    404.67     0  07:00      3.22    1.49    1.00
  WS02006251WS02006249 CONDUIT    536.85     0  03:00      1.39    1.55    1.00
  WS02006249WS02006248 CONDUIT    381.35     0  06:30      1.19    2.09    1.00
  WS02006248WS02006247 CONDUIT    376.96     0  06:31      1.16    0.82    1.00
  WS02006247WS02006245 CONDUIT    372.85     0  06:31      1.14    2.96    1.00
  WS02006245WS02006243 CONDUIT    368.59     0  06:31      1.18    1.09    1.00
  WS02006243WS02006242 CONDUIT    363.51     0  06:31      1.07    0.78    1.00
  WS02006242WS02006240 CONDUIT    359.06     0  06:31      0.99    1.43    1.00
  WS02006240WS02006239 CONDUIT    354.83     0  06:32      1.03    1.12    1.00
  WS02006239WS02006238 CONDUIT    353.43     0  06:32      0.95    1.13    1.00
  WS02006238WS02006235 CONDUIT    353.05     0  06:32      1.05    0.79    1.00
  WS02006235WS02006234 CONDUIT    524.08     0  07:00      1.36    5.53    1.00
  WS02006234WS02006232 CONDUIT    524.08     0  07:00      1.36    1.06    1.00
  WS02006232WS02006231 CONDUIT    524.10     0  07:00      1.36    1.10    1.00
  WS02006231WS02006230 CONDUIT    524.48     0  07:00      1.48    7.96    1.00
  WS02006230WS02006229 CONDUIT    534.78     0  07:00      1.39   11.90    1.00
  WS02006228WS02006109 CONDUIT    914.25     0  03:03      1.82    3.99    1.00
  WS02006116WS02004401 CONDUIT    939.98     0  03:02      1.20    1.30    1.00
  WS02006115WS02006116 CONDUIT    940.00     0  03:02      1.20    1.21    1.00
  WS02006113WS02006111 CONDUIT    915.78     0  03:03      2.57    1.10    1.00
  WS02006112WS02006115 CONDUIT    939.54     0  03:02      1.20    0.55    1.00
  WS02006111WS02006112 CONDUIT    916.19     0  03:02      1.82    0.44    1.00
  WS02006110WS02006113 CONDUIT    915.41     0  03:02      1.82    0.83    1.00
  WS02006109WS02006110 CONDUIT    915.47     0  03:02      1.82    1.76    1.00
  WS02004411WS02004412 CONDUIT    937.22     0  03:03      1.24    1.33    0.92
  WS02004401WS02004402 CONDUIT    939.99     0  03:02      1.20    1.13    1.00
  WS02004413WS02003067 CONDUIT    937.79     0  03:04      1.55    0.40    0.72
  WS02004412WS02004413 CONDUIT    937.73     0  03:04      1.22    0.63    0.95
  WS02004410WS02004411 CONDUIT    937.63     0  03:03      1.23    1.28    0.94
  WS02004409WS02004410 CONDUIT    938.08     0  03:03      1.21    1.21    0.95
  WS02004407WS02004409 CONDUIT    939.29     0  03:03      1.67    0.33    0.68
  WS02004406WS02004407 CONDUIT    939.88     0  03:02      1.60    0.42    0.70
  WS02004405WS02004406 CONDUIT    939.98     0  03:02      1.20    1.85    1.00
  WS02004404WS02004405 CONDUIT    940.81     0  03:02      1.20    9.22    1.00
  WS02004403WS02004404 CONDUIT    940.82     0  03:02      1.20    0.68    1.00
  WS02004402WS02004403 CONDUIT    939.88     0  03:02      1.20    1.35    1.00
  WS02004139WS02001211 CONDUIT    382.96     0  03:16      0.90    0.48    0.64
  WS02004138WS02004139 CONDUIT    394.13     0  00:00      3.62    0.08    0.47
  WS02003067WS02003066 CONDUIT    938.30     0  03:04      1.65    0.30    0.50
  WS02001213WS02003059 CONDUIT    398.65     0  03:15      0.89    0.66    0.87
  WS02001212WS02001213 CONDUIT    395.75     0  03:16      1.32    0.61    0.56
  WS02001211WS02001212 CONDUIT    393.22     0  03:16      0.78    0.30    0.71
  WS02003072WS02003073 CONDUIT   1332.79     0  03:06      1.96    2.88    0.58
  WS02003069WS02003072 CONDUIT   1332.73     0  03:05      1.82    0.64    0.62
  WS02003060WS02003069 CONDUIT   1332.74     0  03:05      2.03    0.52    0.56
  WS02003059WS02003060 CONDUIT    402.17     0  03:15      0.95    0.26    0.77
  HS02004901HS02004770 CONDUIT     37.22     0  03:01      0.10    0.14    0.53
  HS02004876HS02004881 CONDUIT    127.64     0  03:01      1.21    1.36    0.15
  HS02004870HS02004876 CONDUIT    103.11     0  03:01      0.82    0.07    0.18
  HS02004842HS02004848 CONDUIT     16.84     0  03:01      0.07    0.01    0.33
  HS02004837HS02004842 CONDUIT     17.91     0  03:03      0.42    0.01    0.35
  HS02004830HS02004837 CONDUIT     64.64     0  03:01      0.67    0.06    0.14
  HS02004824HS02004830 CONDUIT     64.12     0  03:02      0.62    0.08    0.16
  HS02004817HS02004824 CONDUIT    123.87     0  03:01      0.31    0.06    0.58
  HS02004770HS02004777 CONDUIT    184.98     0  03:01      0.49    0.34    0.54
  HS02004799HS02004480 CONDUIT    444.37     0  03:01      1.07    0.56    0.60
  HS02004792HS02004799 CONDUIT    408.45     0  03:01      1.20    0.25    0.49
  HS02004788HS02004792 CONDUIT    232.94     0  03:02      1.28    0.15    0.26
  HS02004785HS02004788 CONDUIT    181.78     0  03:02      0.91    1.37    0.29
  HS02004777HS02004785 CONDUIT    182.06     0  03:01      0.57    0.22    0.45
  HS02004480HS02004478 CONDUIT    517.38     0  03:01      1.55    2.18    0.48
  HS02004479HS02004480 CONDUIT     77.35     0  03:02      0.30    0.07    0.57
  HS02004862HS02004870 CONDUIT     79.03     0  03:01      0.80    0.09    0.14
  HS02004848HS02004852 CONDUIT     37.84     0  03:01      0.53    0.04    0.10
  HS02004856HS02004862 CONDUIT     54.76     0  03:01      0.59    0.05    0.13
  HS02004852HS02004856 CONDUIT     37.76     0  03:02      0.34    0.04    0.16
  HS02004802HS02004478 CONDUIT    170.17     0  03:04      0.54    0.15    0.48
  HS02004478WS02006287 CONDUIT    677.67     0  03:02      2.11    0.19    0.36
  HS02004817HS02004807 CONDUIT    128.13     0  03:04      0.25    0.08    0.75
  HS02004807HS02004802 CONDUIT    165.31     0  03:04      0.46    0.32    0.53
  YS02001759YS02001757 CONDUIT    622.94     0  02:43      0.79    0.44    1.00
  YS02001762YS02001759 CONDUIT    316.08     0  02:43      0.40    0.36    1.00
  YS02001765YS02001762 CONDUIT    317.06     0  02:43      0.40    0.30    1.00
  YS02001770YS02001767 CONDUIT    316.54     0  02:43      0.40    1.25    1.00
  YS02001774YS02001770 CONDUIT    650.48     0  03:01      0.83    0.42    1.00
  YS02001779YS02001774 CONDUIT    651.60     0  03:01      0.83    0.33    1.00
  YS02001649YS02001757 CONDUIT    874.82     0  02:40      1.11    0.53    1.00
  YS02001767YS02001765 CONDUIT    317.70     0  02:43      0.40    0.40    1.00
  YS02006561YS02001783 CONDUIT   1150.83     0  03:00      2.29    0.60    1.00
  YS02001783YS02001784 CONDUIT   1150.52     0  03:00      2.29    1.59    1.00
  YS02001784YS02001785 CONDUIT   1151.61     0  03:00      2.29    2.68    1.00
  YS02001788YS02001790 CONDUIT   1159.04     0  02:55      2.72    0.85    1.00
  YS02001790YS02001791 CONDUIT   1270.80     0  02:55      3.41    1.38    1.00
  YS02001791YS02001793 CONDUIT   1224.25     0  02:55      6.51    0.53    1.00
  YS02001910YS02001907 CONDUIT    595.05     0  03:01      0.76    0.34    1.00
  YS02001786YS02001788 CONDUIT   1152.16     0  03:00      2.47    2.22    1.00
  YS02001915YS02001910 CONDUIT    595.38     0  03:01      0.76    0.30    1.00
  YS02001918YS02001915 CONDUIT    260.61     0  02:52      0.44    0.14    1.00
  YS02001923YS02001920 CONDUIT    257.01     0  02:52      0.75    0.12    1.00
  YS02001926YS02001923 CONDUIT    229.57     0  02:52      0.86    0.33    0.93
  YS02001929YS02001926 CONDUIT    200.44     0  03:02      0.92    0.10    0.82
  YS02001920YS02001918 CONDUIT    260.09     0  02:52      0.72    0.25    1.00
  YS02001629YS02163301 CONDUIT    208.20     0  02:32      0.27    0.26    1.00
  YS02001619YS02001622 CONDUIT    380.89     0  03:01      0.59    0.56    1.00
  YS02001622YS02001625 CONDUIT    381.69     0  03:01      0.49    0.20    1.00
  YS02001625YS02001629 CONDUIT    196.05     0  02:39      0.25    0.09    1.00
  YS02163301YS02001633 CONDUIT    209.69     0  02:32      0.27    0.20    1.00
  YS02163601YS02164001 CONDUIT    412.96     0  02:39      0.53    0.37    1.00
  YS02164001YS02001641 CONDUIT    413.19     0  02:39      0.53    0.56    1.00
  YS02001641YS02001644 CONDUIT    413.20     0  02:39      0.53    1.34    1.00
  YS02001647YS02001649 CONDUIT    680.38     0  03:01      0.87    0.36    1.00
  YS02006553YS02006556 CONDUIT    718.53     0  02:51      0.91    0.61    1.00
  YS02006556YS02006558 CONDUIT    718.69     0  02:51      0.92    0.57    1.00
  YSB6556YSB1171       CONDUIT     42.86     0  03:02      0.13    0.04    0.82
  YS02001907YS02006553 CONDUIT    718.53     0  02:51      0.80    0.85    1.00
  YS02006558YS02006561 CONDUIT   1150.59     0  03:00      4.07    2.54    1.00
  YS02001633YS02163601 CONDUIT    412.68     0  02:39      0.53    0.43    1.00
  YS02001644YS02001647 CONDUIT    680.96     0  03:01      0.87    0.40    1.00
  YS02001745YS02001748 CONDUIT    578.12     0  02:32      1.45    0.22    0.97
  YS02001748YS02001751 CONDUIT    443.51     0  03:01      1.03    0.22    1.00
  YS02001751YS02001754 CONDUIT    442.31     0  03:01      0.88    0.21    1.00
  YS02001754YS02001757 CONDUIT    443.07     0  03:01      0.56    0.18    1.00
  YS02001882YS02001884 CONDUIT     13.58     0  04:13      0.12    0.02    1.00
  YS02001884YS02001887 CONDUIT     21.24     0  04:17      0.08    0.03    1.00
  YS02001890YS02001895 CONDUIT    517.70     0  03:03      0.66    0.24    1.00
  YS02001895YS02001898 CONDUIT    517.14     0  02:57      0.66    0.90    1.00
  YS02001898YS02001901 CONDUIT    517.54     0  03:02      0.66    0.33    1.00
  YS02001901YS02001904 CONDUIT    517.40     0  03:03      0.66    0.80    1.00
  YS02001904YS02001907 CONDUIT    517.48     0  03:00      0.66    0.18    1.00
  YS02001887YS02001890 CONDUIT    680.00     0  03:01      0.87    1.16    1.00
  YS02001652YS02001649 CONDUIT    501.90     0  03:01      0.64    0.25    1.00
  YS02001655YS02001652 CONDUIT    501.38     0  03:01      0.94    0.24    1.00
  YS02001658YS02001655 CONDUIT    501.33     0  03:01      1.18    0.21    1.00
  YS02001661YS02001658 CONDUIT    590.16     0  02:29      1.52    0.23    1.00
  YS02001664YS02001661 CONDUIT    659.73     0  02:42      1.43    0.21    0.77
  YSB1154YSB6556       CONDUIT     43.27     0  03:01      0.18    0.08    0.73
  YSB1174YSB1171       CONDUIT     36.64     0  03:01      0.11    0.06    0.85
  YSB1171HS02004479    CONDUIT     75.47     0  03:02      0.54    0.05    0.68
  HS02004881HS02006253 CONDUIT    140.48     0  03:01      2.16    0.03    0.54
  YS02001793JiankangQianchi CONDUIT   1180.10     0  02:51     16.70    0.09    1.00
  YS02001757CaochengTiaoxuchi CONDUIT   1680.16     0  02:40      2.17    0.74    1.00
  WSF200WS02003060     CONDUIT    938.80     0  03:04      1.93    0.21    0.45
  1                    CONDUIT   1334.73     0  03:07      3.59    0.46    0.48
  CC-Pump-1            PUMP       200.00     0  03:00              1.00
  CC-Pump-2            PUMP       200.00     0  04:20              1.00
  JK-Pump-1            PUMP       300.00     0  02:30              1.00
  JK-Pump-2            PUMP       683.00     0  02:30              1.00
  XR-Pump-1            PUMP        95.00     0  00:00              1.00
  XR-Pump-2            PUMP        95.00     0  00:00              1.00
  XR-Pump-3            PUMP        95.00     0  00:00              1.00
  XR-Pump-4            PUMP        95.00     0  00:00              1.00
  
  
  ***************************
  Flow Classification Summary
  ***************************
  
  -------------------------------------------------------------------------------------
                      Adjusted    ---------- Fraction of Time in Flow Class ---------- 
                       /Actual         Up    Down  Sub   Sup   Up    Down  Norm  Inlet 
  Conduit               Length    Dry  Dry   Dry   Crit  Crit  Crit  Crit  Ltd   Ctrl  
  -------------------------------------------------------------------------------------
  WS02003066WSF200        1.00   0.01  0.04  0.00  0.00  0.95  0.00  0.00  0.41  0.00
  WS02006287WS02006284    1.00   0.03  0.01  0.00  0.64  0.32  0.00  0.00  0.65  0.00
  WS02006284WS02006280    1.00   0.03  0.00  0.00  0.00  0.00  0.00  0.97  0.00  0.00
  WS02006280WS02006229    1.00   0.03  0.00  0.00  0.01  0.02  0.00  0.94  0.01  0.00
  WS02006229WS02006228    1.00   0.00  0.00  0.00  1.00  0.00  0.00  0.00  0.00  0.00
  WS02006256WS02006235    1.00   0.00  0.00  0.00  0.99  0.00  0.00  0.00  0.00  0.00
  WS02006253WS02006251    1.00   0.01  0.01  0.00  0.97  0.00  0.00  0.00  0.00  0.00
  WS02006252WS02006251    1.00   0.16  0.00  0.00  0.11  0.00  0.73  0.00  0.00  0.00
  WS02006251WS02006249    1.00   0.00  0.00  0.00  1.00  0.00  0.00  0.00  0.23  0.00
  WS02006249WS02006248    1.00   0.00  0.00  0.00  0.92  0.00  0.08  0.00  0.00  0.00
  WS02006248WS02006247    1.00   0.00  0.00  0.00  0.99  0.00  0.00  0.01  0.12  0.00
  WS02006247WS02006245    1.00   0.01  0.00  0.00  0.99  0.00  0.00  0.00  0.00  0.00
  WS02006245WS02006243    1.00   0.01  0.00  0.00  0.96  0.00  0.00  0.03  0.00  0.00
  WS02006243WS02006242    1.00   0.01  0.00  0.00  0.99  0.00  0.00  0.00  0.20  0.00
  WS02006242WS02006240    1.00   0.01  0.00  0.00  0.99  0.00  0.00  0.00  0.00  0.00
  WS02006240WS02006239    1.00   0.01  0.00  0.00  0.96  0.00  0.00  0.04  0.01  0.00
  WS02006239WS02006238    1.00   0.00  0.00  0.00  0.99  0.00  0.00  0.00  0.12  0.00
  WS02006238WS02006235    1.00   0.00  0.00  0.00  0.99  0.00  0.00  0.00  0.00  0.00
  WS02006235WS02006234    1.00   0.00  0.00  0.00  0.96  0.00  0.03  0.00  0.00  0.00
  WS02006234WS02006232    1.00   0.00  0.00  0.00  0.99  0.00  0.00  0.00  0.08  0.00
  WS02006232WS02006231    1.00   0.00  0.00  0.00  0.99  0.00  0.00  0.00  0.00  0.00
  WS02006231WS02006230    1.00   0.01  0.00  0.00  0.79  0.00  0.21  0.00  0.00  0.00
  WS02006230WS02006229    1.00   0.00  0.00  0.00  0.99  0.00  0.00  0.01  0.00  0.00
  WS02006228WS02006109    1.00   0.00  0.00  0.00  1.00  0.00  0.00  0.00  0.00  0.00
  WS02006116WS02004401    1.00   0.01  0.00  0.00  0.99  0.00  0.00  0.00  0.00  0.00
  WS02006115WS02006116    1.00   0.01  0.00  0.00  0.99  0.00  0.00  0.00  0.00  0.00
  WS02006113WS02006111    1.00   0.01  0.00  0.00  0.03  0.96  0.00  0.00  0.13  0.00
  WS02006112WS02006115    1.00   0.01  0.00  0.00  0.99  0.00  0.00  0.00  0.00  0.00
  WS02006111WS02006112    1.00   0.01  0.00  0.00  0.99  0.00  0.00  0.00  0.86  0.00
  WS02006110WS02006113    1.00   0.00  0.01  0.00  0.99  0.00  0.00  0.00  0.00  0.00
  WS02006109WS02006110    1.00   0.00  0.00  0.00  0.99  0.00  0.00  0.00  0.00  0.00
  WS02004411WS02004412    1.00   0.02  0.00  0.00  0.98  0.00  0.00  0.00  0.00  0.00
  WS02004401WS02004402    1.00   0.01  0.00  0.00  0.99  0.00  0.00  0.00  0.00  0.00
  WS02004413WS02003067    1.00   0.02  0.01  0.00  0.00  0.00  0.96  0.00  0.00  0.00
  WS02004412WS02004413    1.00   0.02  0.00  0.00  0.98  0.00  0.00  0.00  0.02  0.00
  WS02004410WS02004411    1.00   0.02  0.00  0.00  0.98  0.00  0.00  0.00  0.03  0.00
  WS02004409WS02004410    1.00   0.02  0.00  0.00  0.98  0.00  0.00  0.00  0.04  0.00
  WS02004407WS02004409    1.00   0.02  0.00  0.00  0.98  0.00  0.00  0.00  0.91  0.00
  WS02004406WS02004407    1.00   0.00  0.02  0.00  0.98  0.00  0.00  0.00  0.00  0.00
  WS02004405WS02004406    1.00   0.00  0.00  0.00  1.00  0.00  0.00  0.00  0.02  0.00
  WS02004404WS02004405    1.00   0.00  0.00  0.00  1.00  0.00  0.00  0.00  0.00  0.00
  WS02004403WS02004404    1.00   0.00  0.01  0.00  0.99  0.00  0.00  0.00  0.00  0.00
  WS02004402WS02004403    1.00   0.01  0.00  0.00  0.99  0.00  0.00  0.00  0.00  0.00
  WS02004139WS02001211    1.00   0.00  0.00  0.00  1.00  0.00  0.00  0.00  0.00  0.00
  WS02004138WS02004139    1.00   0.00  0.00  0.00  1.00  0.00  0.00  0.00  1.00  0.00
  WS02003067WS02003066    1.00   0.04  0.01  0.00  0.95  0.00  0.00  0.00  0.00  0.00
  WS02001213WS02003059    1.00   0.00  0.00  0.00  1.00  0.00  0.00  0.00  0.00  0.00
  WS02001212WS02001213    1.00   0.00  0.00  0.00  0.93  0.00  0.07  0.00  0.00  0.00
  WS02001211WS02001212    1.00   0.00  0.00  0.00  1.00  0.00  0.00  0.00  0.00  0.00
  WS02003072WS02003073    1.00   0.00  0.00  0.00  0.00  0.00  0.00  1.00  0.00  0.00
  WS02003069WS02003072    1.00   0.00  0.00  0.00  1.00  0.00  0.00  0.00  0.13  0.00
  WS02003060WS02003069    1.00   0.00  0.00  0.00  1.00  0.00  0.00  0.00  0.09  0.00
  WS02003059WS02003060    1.00   0.00  0.00  0.00  1.00  0.00  0.00  0.00  0.00  0.00
  HS02004901HS02004770    1.00   0.03  0.00  0.00  0.97  0.00  0.00  0.00  0.00  0.00
  HS02004876HS02004881    1.00   0.00  0.00  0.00  0.93  0.07  0.00  0.00  0.00  0.00
  HS02004870HS02004876    1.00   0.00  0.00  0.00  1.00  0.00  0.00  0.00  0.95  0.00
  HS02004842HS02004848    1.00   0.00  0.03  0.00  0.97  0.00  0.00  0.00  0.54  0.00
  HS02004837HS02004842    1.00   0.00  0.00  0.00  1.00  0.00  0.00  0.00  0.11  0.00
  HS02004830HS02004837    1.00   0.00  0.00  0.00  1.00  0.00  0.00  0.00  0.99  0.00
  HS02004824HS02004830    1.00   0.00  0.00  0.00  1.00  0.00  0.00  0.00  0.01  0.00
  HS02004817HS02004824    1.00   0.00  0.00  0.00  1.00  0.00  0.00  0.00  0.97  0.00
  HS02004770HS02004777    1.00   0.00  0.03  0.00  0.97  0.00  0.00  0.00  0.03  0.00
  HS02004799HS02004480    1.00   0.00  0.01  0.00  0.96  0.00  0.03  0.00  0.00  0.00
  HS02004792HS02004799    1.00   0.00  0.00  0.00  1.00  0.00  0.00  0.00  0.98  0.00
  HS02004788HS02004792    1.00   0.00  0.00  0.00  1.00  0.00  0.00  0.00  0.98  0.00
  HS02004785HS02004788    1.00   0.00  0.00  0.00  1.00  0.00  0.00  0.00  0.00  0.00
  HS02004777HS02004785    1.00   0.00  0.00  0.00  1.00  0.00  0.00  0.00  0.12  0.00
  HS02004480HS02004478    1.00   0.03  0.00  0.00  0.72  0.00  0.00  0.25  0.00  0.00
  HS02004479HS02004480    1.00   0.01  0.00  0.00  0.99  0.00  0.00  0.00  0.12  0.00
  HS02004862HS02004870    1.00   0.00  0.00  0.00  1.00  0.00  0.00  0.00  0.04  0.00
  HS02004848HS02004852    1.00   0.03  0.00  0.00  0.97  0.00  0.00  0.00  0.64  0.00
  HS02004856HS02004862    1.00   0.00  0.04  0.00  0.96  0.00  0.00  0.00  0.83  0.00
  HS02004852HS02004856    1.00   0.03  0.00  0.00  0.97  0.00  0.00  0.00  0.81  0.00
  HS02004802HS02004478    1.00   0.03  0.00  0.00  0.97  0.00  0.00  0.00  0.02  0.00
  HS02004478WS02006287    1.00   0.04  0.00  0.00  0.79  0.17  0.00  0.00  0.65  0.00
  HS02004817HS02004807    1.00   0.00  0.03  0.00  0.97  0.00  0.00  0.00  0.01  0.00
  HS02004807HS02004802    1.00   0.03  0.00  0.00  0.96  0.00  0.00  0.00  0.00  0.00
  YS02001759YS02001757    1.00   0.00  0.00  0.00  1.00  0.00  0.00  0.00  0.16  0.00
  YS02001762YS02001759    1.00   0.00  0.00  0.00  1.00  0.00  0.00  0.00  0.03  0.00
  YS02001765YS02001762    1.00   0.00  0.00  0.00  1.00  0.00  0.00  0.00  0.14  0.00
  YS02001770YS02001767    1.00   0.00  0.00  0.00  1.00  0.00  0.00  0.00  0.00  0.00
  YS02001774YS02001770    1.00   0.00  0.03  0.00  0.97  0.00  0.00  0.00  0.03  0.00
  YS02001779YS02001774    1.00   0.00  0.00  0.00  1.00  0.00  0.00  0.00  0.19  0.00
  YS02001649YS02001757    1.00   0.00  0.00  0.00  1.00  0.00  0.00  0.00  0.16  0.00
  YS02001767YS02001765    1.00   0.00  0.00  0.00  1.00  0.00  0.00  0.00  0.00  0.00
  YS02006561YS02001783    1.00   0.04  0.00  0.00  0.34  0.62  0.00  0.00  0.45  0.00
  YS02001783YS02001784    1.00   0.00  0.05  0.00  0.95  0.00  0.00  0.00  0.01  0.00
  YS02001784YS02001785    1.00   0.00  0.00  0.00  1.00  0.00  0.00  0.00  0.18  0.00
  YS02001788YS02001790    1.00   0.00  0.00  0.00  0.35  0.65  0.00  0.00  0.39  0.00
  YS02001790YS02001791    1.00   0.00  0.00  0.00  0.32  0.68  0.00  0.00  0.47  0.00
  YS02001791YS02001793    1.00   0.00  0.00  0.00  0.37  0.63  0.00  0.00  0.03  0.00
  YS02001910YS02001907    1.00   0.00  0.00  0.00  0.99  0.00  0.00  0.01  0.12  0.00
  YS02001786YS02001788    1.00   0.00  0.00  0.00  0.36  0.64  0.00  0.00  0.00  0.00
  YS02001915YS02001910    1.00   0.00  0.00  0.00  0.99  0.01  0.00  0.00  0.16  0.00
  YS02001918YS02001915    1.00   0.00  0.00  0.00  0.99  0.00  0.00  0.00  0.54  0.00
  YS02001923YS02001920    1.00   0.00  0.00  0.00  1.00  0.00  0.00  0.00  0.82  0.00
  YS02001926YS02001923    1.00   0.00  0.02  0.00  0.16  0.00  0.82  0.00  0.00  0.00
  YS02001929YS02001926    1.00   0.00  0.03  0.00  0.97  0.00  0.00  0.00  0.75  0.00
  YS02001920YS02001918    1.00   0.00  0.00  0.00  1.00  0.00  0.00  0.00  0.00  0.00
  YS02001629YS02163301    1.00   0.04  0.00  0.00  0.96  0.00  0.00  0.00  0.00  0.00
  YS02001619YS02001622    1.00   0.03  0.00  0.00  0.97  0.00  0.00  0.00  0.00  0.00
  YS02001622YS02001625    1.00   0.03  0.00  0.00  0.97  0.00  0.00  0.00  0.05  0.00
  YS02001625YS02001629    1.00   0.03  0.01  0.00  0.94  0.00  0.02  0.00  0.00  0.00
  YS02163301YS02001633    1.00   0.00  0.04  0.00  0.96  0.00  0.00  0.00  0.00  0.00
  YS02163601YS02164001    1.00   0.00  0.02  0.00  0.98  0.00  0.00  0.00  0.00  0.00
  YS02164001YS02001641    1.00   0.00  0.02  0.00  0.98  0.00  0.00  0.00  0.06  0.00
  YS02001641YS02001644    1.00   0.00  0.00  0.00  1.00  0.00  0.00  0.00  0.00  0.00
  YS02001647YS02001649    1.00   0.00  0.04  0.00  0.96  0.00  0.00  0.00  0.01  0.00
  YS02006553YS02006556    1.00   0.00  0.00  0.00  1.00  0.00  0.00  0.00  0.03  0.00
  YS02006556YS02006558    1.00   0.00  0.00  0.00  1.00  0.00  0.00  0.00  0.00  0.00
  YSB6556YSB1171          1.00   0.01  0.02  0.00  0.97  0.00  0.00  0.00  0.00  0.00
  YS02001907YS02006553    1.00   0.00  0.00  0.00  0.99  0.00  0.00  0.00  0.00  0.00
  YS02006558YS02006561    1.00   0.04  0.00  0.00  0.15  0.81  0.00  0.00  0.46  0.00
  YS02001633YS02163601    1.00   0.00  0.00  0.00  1.00  0.00  0.00  0.00  0.15  0.00
  YS02001644YS02001647    1.00   0.00  0.04  0.00  0.96  0.00  0.00  0.00  0.00  0.00
  YS02001745YS02001748    1.00   0.00  0.00  0.00  0.92  0.00  0.00  0.08  0.04  0.00
  YS02001748YS02001751    1.00   0.00  0.00  0.00  0.97  0.03  0.00  0.00  0.15  0.00
  YS02001751YS02001754    1.00   0.00  0.00  0.00  0.95  0.00  0.00  0.05  0.02  0.00
  YS02001754YS02001757    1.00   0.00  0.00  0.00  1.00  0.00  0.00  0.00  0.18  0.00
  YS02001882YS02001884    1.00   0.04  0.00  0.00  0.96  0.00  0.00  0.00  0.00  0.00
  YS02001884YS02001887    1.00   0.02  0.01  0.00  0.97  0.00  0.00  0.00  0.00  0.00
  YS02001890YS02001895    1.00   0.00  0.04  0.00  0.96  0.00  0.00  0.00  0.00  0.00
  YS02001895YS02001898    1.00   0.04  0.00  0.00  0.95  0.00  0.01  0.00  0.00  0.00
  YS02001898YS02001901    1.00   0.04  0.00  0.00  0.96  0.00  0.00  0.00  0.01  0.00
  YS02001901YS02001904    1.00   0.04  0.00  0.00  0.96  0.00  0.00  0.00  0.00  0.00
  YS02001904YS02001907    1.00   0.00  0.04  0.00  0.96  0.00  0.00  0.00  0.00  0.00
  YS02001887YS02001890    1.00   0.00  0.00  0.00  0.99  0.00  0.01  0.00  0.00  0.00
  YS02001652YS02001649    1.00   0.00  0.00  0.00  1.00  0.00  0.00  0.00  0.17  0.00
  YS02001655YS02001652    1.00   0.00  0.00  0.00  0.95  0.00  0.00  0.05  0.02  0.00
  YS02001658YS02001655    1.00   0.00  0.03  0.00  0.94  0.03  0.00  0.00  0.10  0.00
  YS02001661YS02001658    1.00   0.03  0.00  0.00  0.92  0.05  0.00  0.00  0.11  0.00
  YS02001664YS02001661    1.00   0.03  0.00  0.00  0.93  0.04  0.00  0.00  0.20  0.00
  YSB1154YSB6556          1.00   0.03  0.00  0.00  0.97  0.00  0.00  0.00  0.02  0.00
  YSB1174YSB1171          1.00   0.01  0.01  0.00  0.98  0.00  0.00  0.00  0.00  0.00
  YSB1171HS02004479       1.00   0.01  0.00  0.00  0.98  0.00  0.00  0.00  0.10  0.00
  HS02004881HS02006253    1.00   0.02  0.00  0.00  0.81  0.02  0.00  0.16  0.63  0.00
  YS02001793JiankangQianchi    1.00   0.00  0.00  0.00  0.63  0.37  0.00  0.00  0.38  0.00
  YS02001757CaochengTiaoxuchi    1.00   0.00  0.06  0.00  0.94  0.00  0.00  0.00  0.00  0.00
  WSF200WS02003060        1.00   0.00  0.01  0.00  0.97  0.02  0.00  0.00  0.32  0.00
  1                       1.00   0.00  0.00  0.00  0.00  1.00  0.00  0.00  0.51  0.00
  
  
  *************************
  Conduit Surcharge Summary
  *************************
  
  ----------------------------------------------------------------------------
                                                           Hours        Hours 
                         --------- Hours Full --------   Above Full   Capacity
  Conduit                Both Ends  Upstream  Dnstream   Normal Flow   Limited
  ----------------------------------------------------------------------------
  WS02006229WS02006228        4.39      4.44      4.39      5.12         4.39
  WS02006256WS02006235        6.02      6.03      6.77      4.67         0.01
  WS02006253WS02006251        1.95      1.95      2.08      0.01         0.01
  WS02006252WS02006251        1.40      1.40      2.36      1.82         0.01
  WS02006251WS02006249        1.99      1.99      2.17      0.96         0.77
  WS02006249WS02006248        2.04      2.05      2.17      4.35         0.01
  WS02006248WS02006247        2.16      2.16      2.56      0.01         0.01
  WS02006247WS02006245        2.54      2.65      2.54      4.60         2.42
  WS02006245WS02006243        2.63      2.63      2.84      0.13         0.16
  WS02006243WS02006242        2.92      2.92      3.69      0.01         0.01
  WS02006242WS02006240        3.63      3.63      3.82      1.99         0.01
  WS02006240WS02006239        3.66      3.67      3.73      0.99         0.64
  WS02006239WS02006238        3.84      3.85      3.95      1.09         0.74
  WS02006238WS02006235        3.93      3.93      4.05      0.01         0.02
  WS02006235WS02006234        3.77      3.77      3.89      5.88         0.01
[...]
  YS02001770YS02001767        5.69      5.69      5.70      0.21         0.65
  YS02001774YS02001770        5.68      5.68      5.74      0.01         0.01
  YS02001779YS02001774        5.56      5.56      5.74      0.01         0.01
  YS02001649YS02001757        5.75      5.75      5.86      0.01         0.01
  YS02001767YS02001765        5.70      5.70      5.72      0.01         0.01
  YS02006561YS02001783        0.86      0.86      1.30      0.01         0.01
  YS02001783YS02001784        1.26      1.30      1.26      1.57         1.18
  YS02001784YS02001785        1.08      1.26      1.08      2.50         1.08
  YS02001788YS02001790        0.79      0.79      1.50      0.01         0.01
  YS02001790YS02001791        1.49      1.50      1.59      1.11         0.79
  YS02001791YS02001793        1.59      1.59      2.06      0.01         0.01
  YS02001910YS02001907        1.24      1.24      1.89      0.01         0.01
  YS02001786YS02001788        0.79      1.08      0.79      2.02         0.79
  YS02001915YS02001910        1.04      1.04      1.24      0.01         0.01
  YS02001918YS02001915        0.85      0.85      1.04      0.01         0.01
  YS02001923YS02001920        0.71      0.71      0.88      0.01         0.01
  YS02001920YS02001918        0.85      0.85      0.88      0.01         0.01
  YS02001629YS02163301        5.67      5.67      5.69      0.01         0.01
  YS02001619YS02001622        5.36      5.36      5.41      0.01         0.02
  YS02001622YS02001625        5.41      5.41      5.64      0.01         0.01
  YS02001625YS02001629        5.38      5.38      5.64      0.01         0.01
  YS02163301YS02001633        5.69      5.69      5.72      0.01         0.01
  YS02163601YS02164001        5.72      5.72      5.75      0.01         0.01
  YS02164001YS02001641        5.72      5.72      5.73      0.01         0.03
  YS02001641YS02001644        5.73      5.73      5.73      1.72         1.88
  YS02001647YS02001649        5.62      5.62      5.75      0.01         0.01
  YS02006553YS02006556        1.46      1.46      1.98      0.01         0.01
  YS02006556YS02006558        1.67      1.67      2.07      0.01         0.01
  YSB6556YSB1171              0.01      0.01      0.07      0.01         0.01
  YS02001907YS02006553        2.52      2.52      2.75      0.01         0.01
  YS02006558YS02006561        0.97      1.42      0.97      2.35         0.97
  YS02001633YS02163601        5.71      5.71      5.75      0.01         0.01
  YS02001644YS02001647        5.62      5.62      5.73      0.01         0.01
  YS02001745YS02001748        0.01      0.01      5.22      0.01         0.01
  YS02001748YS02001751        5.27      5.27      5.36      0.01         0.01
  YS02001751YS02001754        5.36      5.36      5.58      0.01         0.01
  YS02001754YS02001757        5.62      5.62      5.86      0.01         0.01
  YS02001882YS02001884        1.06      1.06      1.09      0.01         0.01
  YS02001884YS02001887        1.14      1.14      1.16      0.01         0.01
  YS02001890YS02001895        1.03      1.03      1.26      0.01         0.01
  YS02001895YS02001898        1.02      1.02      1.03      0.01         0.01
  YS02001898YS02001901        1.04      1.04      1.13      0.01         0.01
  YS02001901YS02001904        1.10      1.10      1.13      0.01         0.01
  YS02001904YS02001907        1.10      1.10      1.99      0.01         0.01
  YS02001887YS02001890        1.19      1.19      1.22      0.16         0.01
  YS02001652YS02001649        5.63      5.63      5.75      0.01         0.01
  YS02001655YS02001652        5.39      5.39      5.61      0.01         0.01
  YS02001658YS02001655        5.25      5.25      5.39      0.01         0.01
  YS02001661YS02001658        0.13      0.13      5.25      0.01         0.01
  YS02001664YS02001661        0.01      0.01      1.42      0.01         0.01
  HS02004881HS02006253        0.01      0.01      1.17      0.01         0.01
  YS02001793JiankangQianchi        1.94      1.94      4.01      0.01         0.01
  YS02001757CaochengTiaoxuchi        5.11      5.11      5.86      0.01         0.01
  
  
  ***************
  Pumping Summary
  ***************
  
  ---------------------------------------------------------------------------------------------------------
                                                  Min       Avg       Max     Total     Power    % Time Off
                        Percent   Number of      Flow      Flow      Flow    Volume     Usage    Pump Curve
  Pump                 Utilized   Start-Ups       LPS       LPS       LPS  10^6 ltr     Kw-hr    Low   High
  ---------------------------------------------------------------------------------------------------------
  CC-Pump-1               63.82           1      0.00    185.86    200.00     3.300      3.19    0.0    0.0
  CC-Pump-2               38.29           7      0.00     92.57    200.00     1.200      1.54    0.0    0.0
  JK-Pump-1               63.82           5      0.00    220.27    300.00     3.870     60.03    0.0    0.0
  JK-Pump-2               63.82           5      0.00    400.74    683.00     6.988    100.99    0.0   95.7
  XR-Pump-1               97.87           2      0.00     93.90     95.00     2.565     24.65    0.0    0.0
  XR-Pump-2               95.74           3      0.00     93.46     95.00     2.451     22.20    0.0    0.0
  XR-Pump-3               95.74           3      0.00     92.93     95.00     2.394     20.93    0.0    0.0
  XR-Pump-4               95.74           3      0.00     92.93     95.00     2.394     20.93    0.0    0.0
  
  
  ***************************
  Link Pollutant Load Summary
  ***************************
  
  ------------------------------------------------------------------------------------------
                                 COD            SS            TN            TP         NH4-N
  Link                            kg            kg            kg            kg            kg
  ------------------------------------------------------------------------------------------
  WS02003066WSF200           915.327      1708.857        23.658         2.051        12.415
  WS02006287WS02006284       319.480       608.108        10.316         1.015         5.680
  WS02006284WS02006280       319.959       608.891        10.362         1.021         5.708
  WS02006280WS02006229       319.896       608.762        10.360         1.021         5.707
  WS02006229WS02006228       910.818      1700.746        23.065         1.970        12.037
  WS02006256WS02006235       206.902       383.654         4.541         0.354         2.296
  WS02006253WS02006251        62.569       122.814         1.389         0.105         0.690
  WS02006252WS02006251       383.903       702.158         8.075         0.584         3.981
  WS02006251WS02006249       437.416       808.510         9.289         0.678         4.589
  WS02006249WS02006248       394.644       727.421         8.394         0.612         4.148
  WS02006248WS02006247       394.119       726.482         8.386         0.612         4.145
  WS02006247WS02006245       393.378       725.152         8.369         0.611         4.136
  WS02006245WS02006243       392.491       723.638         8.346         0.609         4.124
  WS02006243WS02006242       391.472       721.807         8.326         0.607         4.114
  WS02006242WS02006240       390.594       720.220         8.312         0.607         4.109
  WS02006240WS02006239       390.529       720.040         8.326         0.609         4.118
  WS02006239WS02006238       391.288       721.103         8.382         0.616         4.152
  WS02006238WS02006235       391.609       721.441         8.409         0.619         4.169
  WS02006235WS02006234       593.691      1096.876        12.773         0.955         6.365
  WS02006234WS02006232       593.345      1096.232        12.771         0.955         6.365
  WS02006232WS02006231       592.784      1095.220        12.758         0.954         6.358
  WS02006231WS02006230       592.078      1093.921        12.746         0.953         6.352
  WS02006230WS02006229       591.496      1092.964        12.726         0.951         6.341
  WS02006228WS02006109       910.314      1699.839        23.053         1.969        12.031
  WS02006116WS02004401       925.598      1727.358        23.917         2.072        12.550
  WS02006115WS02006116       926.520      1728.981        23.945         2.075        12.565
  WS02006113WS02006111       916.579      1709.464        23.789         2.063        12.496
  WS02006112WS02006115       927.534      1730.736        23.983         2.078        12.586
  WS02006111WS02006112       916.276      1708.954        23.781         2.063        12.492
  WS02006110WS02006113       917.192      1710.565        23.811         2.065        12.509
  WS02006109WS02006110       918.266      1712.453        23.859         2.071        12.536
  WS02004411WS02004412       918.657      1714.754        23.778         2.063        12.483
  WS02004401WS02004402       924.597      1725.603        23.882         2.068        12.530
  WS02004413WS02003067       915.987      1710.096        23.675         2.052        12.424
  WS02004412WS02004413       917.506      1712.728        23.739         2.059        12.461
  WS02004410WS02004411       919.611      1716.459        23.808         2.066        12.499
  WS02004409WS02004410       920.594      1718.201        23.841         2.069        12.518
  WS02004407WS02004409       921.371      1719.597        23.863         2.071        12.530
  WS02004406WS02004407       921.566      1719.991        23.864         2.071        12.529
  WS02004405WS02004406       922.928      1722.386        23.923         2.077        12.563
  WS02004404WS02004405       923.498      1723.467        23.915         2.075        12.556
  WS02004403WS02004404       922.902      1722.611        23.824         2.063        12.498
  WS02004402WS02004403       923.732      1724.070        23.854         2.066        12.515
  WS02004139WS02001211      1370.286      2275.580       111.167        13.569        68.522
  WS02004138WS02004139      1376.610      2286.144       111.656        13.628        68.822
  WS02003067WS02003066       915.552      1709.270        23.666         2.052        12.420
  WS02001213WS02003059      1403.463      2327.688       114.613        14.004        70.688
  WS02001212WS02001213      1412.786      2343.132       115.369        14.096        71.154
  WS02001211WS02001212      1414.582      2346.080       115.520        14.115        71.247
  WS02003072WS02003073      2418.585      4194.941       148.239        17.307        89.350
  WS02003069WS02003072      2423.761      4203.493       148.632        17.354        89.591
  WS02003060WS02003069      2426.230      4207.791       148.760        17.369        89.667
  WS02003059WS02003060      1400.454      2322.621       114.384        13.976        70.547
  HS02004901HS02004770        13.094        25.474         0.248         0.019         0.116
  HS02004876HS02004881        45.514        90.344         0.999         0.073         0.491
  HS02004870HS02004876        34.381        68.103         0.798         0.060         0.395
  HS02004842HS02004848         6.456        12.342         0.134         0.009         0.062
  HS02004837HS02004842        11.055        19.634         0.603         0.068         0.356
  HS02004830HS02004837        70.297       122.724         4.643         0.552         2.827
  HS02004824HS02004830        71.069       123.981         4.715         0.561         2.871
  HS02004817HS02004824        97.163       176.405         5.255         0.596         3.135
  HS02004770HS02004777        49.662        97.713         1.021         0.069         0.472
  HS02004799HS02004480       162.323       310.835         4.263         0.379         2.209
  HS02004792HS02004799       147.273       280.121         4.028         0.367         2.105
  HS02004788HS02004792        82.816       157.685         2.666         0.255         1.440
  HS02004785HS02004788        51.120       100.047         1.172         0.089         0.567
  HS02004777HS02004785        50.445        98.942         1.112         0.081         0.530
  HS02004480HS02004478       204.819       395.180         4.972         0.430         2.544
  HS02004479HS02004480        46.129        90.115         1.037         0.091         0.538
  HS02004862HS02004870        25.799        50.338         0.628         0.050         0.314
  HS02004848HS02004852        10.251        19.884         0.210         0.014         0.097
  HS02004856HS02004862        17.524        34.748         0.350         0.023         0.164
  HS02004852HS02004856        10.255        19.889         0.210         0.014         0.097
  HS02004802HS02004478       115.338       214.042         5.398         0.592         3.169
  HS02004478WS02006287       319.691       608.474        10.333         1.017         5.690
  HS02004817HS02004807        95.856       174.307         5.130         0.581         3.057
  HS02004807HS02004802       115.594       214.444         5.430         0.596         3.190
  YS02001759YS02001757       363.713       668.659         7.251         0.504         3.542
  YS02001762YS02001759       170.244       312.486         3.611         0.254         1.786
  YS02001765YS02001762       170.758       314.014         3.640         0.257         1.803
  YS02001770YS02001767       171.465       317.154         3.465         0.230         1.683
  YS02001774YS02001770       251.695       491.152         4.828         0.321         2.333
  YS02001779YS02001774       250.695       489.123         4.911         0.334         2.391
  YS02001649YS02001757       328.658       591.663         6.585         0.457         3.160
  YS02001767YS02001765       171.786       316.473         3.672         0.259         1.820
  YS02006561YS02001783      1042.894      1935.164        21.816         1.627        10.852
  YS02001783YS02001784      1042.735      1934.890        21.811         1.627        10.850
  YS02001784YS02001785      1050.028      1946.555        22.524         1.716        11.296
  YS02001788YS02001790      1050.606      1947.469        22.599         1.726        11.344
  YS02001790YS02001791      1051.660      1949.187        22.709         1.740        11.413
  YS02001791YS02001793      1051.655      1949.156        22.707         1.740        11.411
  YS02001910YS02001907       391.141       721.431         9.383         0.718         4.807
  YS02001786YS02001788      1050.222      1946.891        22.551         1.720        11.313
  YS02001915YS02001910       391.235       721.593         9.336         0.711         4.775
  YS02001918YS02001915       186.129       328.333         5.122         0.466         2.758
  YS02001923YS02001920       165.516       294.985         3.164         0.222         1.535
  YS02001926YS02001923       164.462       293.215         3.098         0.214         1.495
  YS02001929YS02001926       164.236       292.844         3.066         0.210         1.475
  YS02001920YS02001918       185.279       326.591         5.075         0.461         2.730
  YS02001629YS02163301        96.062       169.854         2.028         0.131         0.946
  YS02001619YS02001622       175.874       321.133         3.602         0.236         1.684
  YS02001622YS02001625       174.665       319.205         3.573         0.234         1.670
  YS02001625YS02001629        97.146       171.629         2.052         0.132         0.957
  YS02163301YS02001633        96.403       170.684         2.030         0.132         0.948
  YS02163601YS02164001       405.684       733.069         7.898         0.562         3.783
  YS02164001YS02001641       405.156       732.169         7.878         0.560         3.772
  YS02001641YS02001644       405.187       732.135         7.873         0.560         3.769
  YS02001647YS02001649       422.313       774.422         8.326         0.580         3.969
  YS02006553YS02006556       709.138      1305.940        15.193         1.162         7.641
  YS02006556YS02006558       708.985      1305.632        15.162         1.157         7.620
  YSB6556YSB1171              26.524        51.971         0.537         0.045         0.272
  YS02001907YS02006553       709.307      1306.289        15.202         1.163         7.646
  YS02006558YS02006561      1042.929      1935.242        21.816         1.627        10.852
  YS02001633YS02163601       406.428       734.237         7.879         0.558         3.768
  YS02001644YS02001647       428.129       785.014         8.425         0.587         4.017
  YS02001745YS02001748       251.387       469.603         5.637         0.398         2.820
  YS02001748YS02001751       248.839       464.861         5.647         0.404         2.836
  YS02001751YS02001754       248.071       463.565         5.655         0.406         2.845
  YS02001754YS02001757       248.798       464.641         5.818         0.429         2.951
  YS02001882YS02001884         2.660         4.579         0.054         0.004         0.027
  YS02001884YS02001887         6.740        11.936         0.133         0.010         0.066
  YS02001890YS02001895       450.991       846.489         8.302         0.624         4.050
  YS02001895YS02001898       450.835       846.284         8.296         0.624         4.046
  YS02001898YS02001901       450.607       845.884         8.291         0.623         4.044
  YS02001901YS02001904       450.454       845.664         8.297         0.624         4.048
  YS02001904YS02001907       450.629       845.908         8.350         0.631         4.082
  YS02001887YS02001890       468.308       880.833         8.646         0.653         4.223
  YS02001652YS02001649       196.780       366.507         3.960         0.286         1.859
  YS02001655YS02001652       197.276       367.330         3.973         0.287         1.865
  YS02001658YS02001655       196.636       366.327         3.877         0.274         1.804
  YS02001661YS02001658       200.548       373.346         3.956         0.280         1.840
  YS02001664YS02001661       218.519       402.726         4.365         0.307         2.027
  YSB1154YSB6556              26.086        51.272         0.486         0.038         0.239
  YSB1174YSB1171              18.023        35.565         0.362         0.029         0.181
  YSB1171HS02004479           46.095        90.062         1.040         0.092         0.541
  HS02004881HS02006253        51.666       102.996         1.104         0.080         0.540
  YS02001793JiankangQianchi      1052.032      1949.654        22.721         1.741        11.419
  YS02001757CaochengTiaoxuchi       642.825      1162.072        13.663         0.982         6.732
  WSF200WS02003060           915.291      1708.733        23.665         2.052        12.420
  1                         2425.208      4204.813       149.036        17.409        89.854
  CC-Pump-1                  280.820       513.464         5.908         0.428         2.913
  CC-Pump-2                  103.114       188.749         2.167         0.157         1.068
  JK-Pump-1                  271.229       510.083         5.639         0.425         2.810
  JK-Pump-2                  556.852      1040.501        11.701         0.885         5.844
  XR-Pump-1                  371.388       615.161        30.516         3.732        18.831
  XR-Pump-2                  345.280       573.388        28.009         3.419        17.264
  XR-Pump-3                  331.766       551.767        26.713         3.257        16.454
  XR-Pump-4                  331.766       551.767        26.713         3.257        16.454
  

  Analysis begun on:  Sun Jun 13 15:47:13 2021
  Analysis ended on:  Sun Jun 13 15:47:16 2021
  Total elapsed time: 00:00:03