
  EPA STORM WATER MANAGEMENT MODEL - VERSION 5.1 (Build 5.3.0.dev0)
  --------------------------------------------------------------

  
  *********************************************************
  NOTE: The summary statistics displayed in this report are
  based on results found at every computational time step,  
  not just on results from each reporting time step.
  *********************************************************
  
  ****************
  Analysis Options
  ****************
  Flow Units ............... CMS
  Process Models:
    Rainfall/Runoff ........ YES
    RDII ................... NO
    Snowmelt ............... NO
    Groundwater ............ NO
    Flow Routing ........... YES
    Ponding Allowed ........ YES
    Water Quality .......... NO
  Infiltration Method ...... HORTON
  Flow Routing Method ...... DYNWAVE
  Surcharge Method ......... EXTRAN
  Starting Date ............ 08/28/2015 08:00:00
  Ending Date .............. 08/28/2015 15:50:00
  Antecedent Dry Days ...... 0.0
  Report Time Step ......... 00:01:00
  Wet Time Step ............ 00:01:00
  Dry Time Step ............ 00:01:00
  Routing Time Step ........ 5.00 sec
  Variable Time Step ....... YES
  Maximum Trials ........... 8
  Number of Threads ........ 1
  Head Tolerance ........... 0.001500 m
  
  
  **************************        Volume         Depth
  Runoff Quantity Continuity     hectare-m            mm
  **************************     ---------       -------
  Total Precipitation ......         1.986        11.019
  Evaporation Loss .........         0.000         0.000
  Infiltration Loss ........         0.000         0.000
  Surface Runoff ...........         1.963        10.892
  Final Storage ............         0.023         0.128
  Continuity Error (%) .....        -0.008
  
  
  **************************        Volume        Volume
  Flow Routing Continuity        hectare-m      10^6 ltr
  **************************     ---------     ---------
  Dry Weather Inflow .......         0.396         3.955
  Wet Weather Inflow .......         1.963        19.628
  Groundwater Inflow .......         0.000         0.000
  RDII Inflow ..............         0.000         0.000
  External Inflow ..........         0.000         0.000
  External Outflow .........         0.592         5.921
  Flooding Loss ............         0.701         7.009
  Evaporation Loss .........         0.000         0.000
  Exfiltration Loss ........         0.000         0.000
  Initial Stored Volume ....         0.000         0.000
  Final Stored Volume ......         0.803         8.027
  Continuity Error (%) .....        11.139
  
  
  *************************
  Highest Continuity Errors
  *************************
  Node T2 (30.09%)
  Node T3 (21.15%)
  Node T4 (21.07%)
  Node T5 (17.41%)
  Node T6 (14.46%)
  
  
  ***************************
  Time-Step Critical Elements
  ***************************
  None
  
  
  ********************************
  Highest Flow Instability Indexes
  ********************************
  All links are stable.
  
  
  *************************
  Routing Time Step Summary
  *************************
  Minimum Time Step           :     4.64 sec
  Average Time Step           :     5.00 sec
  Maximum Time Step           :     5.00 sec
  Percent in Steady State     :     0.00
  Average Iterations per Step :     2.18
  Percent Not Converging      :     0.46
  
  
  ***************************
  Subcatchment Runoff Summary
  ***************************
  
  ------------------------------------------------------------------------------------------------------------------------------
                            Total      Total      Total      Total     Imperv       Perv      Total       Total     Peak  Runoff
                           Precip      Runon       Evap      Infil     Runoff     Runoff     Runoff      Runoff   Runoff   Coeff
  Subcatchment                 mm         mm         mm         mm         mm         mm         mm    10^6 ltr      CMS
  ------------------------------------------------------------------------------------------------------------------------------
  SC01                      11.02       0.00       0.00       0.00      10.93       0.00      10.93        3.61     1.00   0.992
  SC02                      11.02       0.00       0.00       0.00      10.93       0.00      10.93        2.49     0.68   0.992
  SC03                      11.02       0.00       0.00       0.00      10.95       0.00      10.95        1.97     0.57   0.994
  SC04                      11.02       0.00       0.00       0.00      10.83       0.00      10.83        0.75     0.17   0.983
  SC05                      11.02       0.00       0.00       0.00      10.93       0.00      10.93        1.70     0.46   0.992
  SC06                      11.02       0.00       0.00       0.00      10.78       0.00      10.78        3.51     0.76   0.978
  SC07                      11.02       0.00       0.00       0.00      10.83       0.00      10.83        0.51     0.12   0.983
  SC08                      11.02       0.00       0.00       0.00      10.91       0.00      10.91        3.05     0.79   0.990
  SC09                      11.02       0.00       0.00       0.00      10.88       0.00      10.88        0.75     0.19   0.987
  SC010                     11.02       0.00       0.00       0.00      10.91       0.00      10.91        1.28     0.33   0.990
  
  
  ******************
  Node Depth Summary
  ******************
  
  ---------------------------------------------------------------------------------
                                 Average  Maximum  Maximum  Time of Max    Reported
                                   Depth    Depth      HGL   Occurrence   Max Depth
  Node                 Type       Meters   Meters   Meters  days hr:min      Meters
  ---------------------------------------------------------------------------------
  J1                   JUNCTION     0.08     0.23    34.23     0  02:01        0.23
  J3                   JUNCTION     0.11     0.14    18.14     0  04:36        0.14
  CSO7                 JUNCTION     0.23     1.20    35.20     0  01:46        1.20
  J5                   JUNCTION     0.07     0.17    32.17     0  02:05        0.17
  CSO9                 JUNCTION     0.29     2.00    42.00     0  01:48        2.00
  J8                   JUNCTION     0.12     0.31    36.31     0  02:07        0.31
  CSO8                 JUNCTION     0.31     2.00    34.00     0  01:46        2.00
  J10                  JUNCTION     0.11     0.31    29.31     0  02:00        0.31
  J13                  JUNCTION     0.07     0.22    29.22     0  02:00        0.22
  J15                  JUNCTION     0.18     0.39    15.39     0  02:04        0.39
  J16                  JUNCTION     0.08     0.24    30.24     0  02:00        0.24
  CSO10                JUNCTION     0.19     1.00    31.00     0  01:45        1.00
  J12                  JUNCTION     0.67     1.01    27.01     0  03:45        1.01
  J4                   JUNCTION     0.19     1.39    34.39     0  01:46        0.79
  J6                   JUNCTION     0.06     0.07    25.07     0  03:37        0.07
  J2                   JUNCTION     0.07     0.08    25.08     0  03:00        0.08
  J19                  JUNCTION     0.14     0.17     8.17     0  02:03        0.17
  J9                   JUNCTION     0.09     0.11    29.11     0  03:47        0.11
  J14                  JUNCTION     0.11     0.15    20.15     0  05:11        0.15
  J17                  JUNCTION     0.06     0.08    20.08     0  03:33        0.08
  J7                   JUNCTION     0.09     0.23    39.23     0  02:22        0.23
  J11                  JUNCTION     0.11     0.30    31.30     0  02:22        0.30
  J18                  JUNCTION     0.06     0.16    29.16     0  02:22        0.16
  Out_to_WWTP          OUTFALL      0.14     0.17     6.17     0  02:02        0.17
  T5                   STORAGE      3.65     5.00    32.00     0  02:12        5.00
  T4                   STORAGE      3.62     5.00    32.00     0  02:49        5.00
  T6                   STORAGE      3.79     5.00    36.00     0  02:07        5.00
  T3                   STORAGE      3.62     5.00    27.00     0  03:37        5.00
  T2                   STORAGE      3.71     5.00    26.00     0  02:36        5.00
  T1                   STORAGE      3.61     5.00    15.00     0  02:02        5.00
  
  
  *******************
  Node Inflow Summary
  *******************
  
  -------------------------------------------------------------------------------------------------
                                  Maximum  Maximum                  Lateral       Total        Flow
                                  Lateral    Total  Time of Max      Inflow      Inflow     Balance
                                   Inflow   Inflow   Occurrence      Volume      Volume       Error
  Node                 Type           CMS      CMS  days hr:min    10^6 ltr    10^6 ltr     Percent
  -------------------------------------------------------------------------------------------------
  J1                   JUNCTION     0.485    0.485     0  02:00        2.27        2.27       0.007
  J3                   JUNCTION     0.000    0.191     0  04:22           0        3.56       1.072
  CSO7                 JUNCTION     0.129    0.129     0  02:04       0.805       0.805       0.055
  J5                   JUNCTION     0.177    0.249     0  02:04       0.875        1.58       0.084
  CSO9                 JUNCTION     0.193    0.193     0  02:02       0.947       0.947       0.041
  J8                   JUNCTION     0.796    0.923     0  02:06        4.45        5.31       0.082
  CSO8                 JUNCTION     0.800    0.800     0  02:01        3.35        3.35       0.014
  J10                  JUNCTION     0.586    1.072     0  01:59        2.36        5.28      -0.015
  J13                  JUNCTION     0.695    0.695     0  02:00        2.95        2.95      -0.189
  J15                  JUNCTION     0.000    1.350     0  02:01           0        9.62       0.884
  J16                  JUNCTION     1.018    1.018     0  02:00        4.16        4.16      -0.018
  CSO10                JUNCTION     0.339    0.339     0  02:01        1.42        1.42       0.020
  J12                  JUNCTION     0.000    1.128     0  02:00           0        6.97       9.984
  J4                   JUNCTION     0.000    0.076     0  01:46           0       0.706       0.460
  J6                   JUNCTION     0.000    0.028     0  02:49           0       0.569       0.708
  J2                   JUNCTION     0.000    0.039     0  02:12           0       0.879       0.578
  J19                  JUNCTION     0.000    0.271     0  02:02           0        5.93       0.199
  J9                   JUNCTION     0.000    0.075     0  02:07           0        1.62       1.095
  J14                  JUNCTION     0.000    0.124     0  04:25           0        2.13       0.344
  J17                  JUNCTION     0.000    0.033     0  02:36           0       0.698       0.965
  J7                   JUNCTION     0.000    0.127     0  02:22           0       0.861       0.363
  J11                  JUNCTION     0.000    0.486     0  02:22           0        2.93       0.219
  J18                  JUNCTION     0.000    0.202     0  02:21           0        1.24       0.063
  Out_to_WWTP          OUTFALL      0.000    0.271     0  02:03           0        5.92       0.000
  T5                   STORAGE      0.000    0.484     0  02:01           0        2.27      21.079
  T4                   STORAGE      0.000    0.249     0  02:05           0        1.58      26.687
  T6                   STORAGE      0.000    0.923     0  02:07           0         5.3      16.901
  T3                   STORAGE      0.000    1.119     0  02:03           0        6.34      26.820
  T2                   STORAGE      0.000    0.694     0  02:00           0        2.96      43.043
  T1                   STORAGE      0.000    1.330     0  02:04           0        9.53       7.803
  
  
  **********************
  Node Surcharge Summary
  **********************
  
  Surcharging occurs when water rises above the top of the highest conduit.
  ---------------------------------------------------------------------
                                               Max. Height   Min. Depth
                                   Hours       Above Crown    Below Rim
  Node                 Type      Surcharged         Meters       Meters
  ---------------------------------------------------------------------
  CSO7                 JUNCTION        1.18          0.945        0.000
  CSO9                 JUNCTION        1.07          1.682        0.000
  CSO8                 JUNCTION        0.99          1.547        0.000
  CSO10                JUNCTION        0.75          0.560        0.000
  J4                   JUNCTION        1.18          1.089        0.611
  
  
  *********************
  Node Flooding Summary
  *********************
  
  Flooding refers to all water that overflows a node, whether it ponds or not.
  --------------------------------------------------------------------------
                                                             Total   Maximum
                                 Maximum   Time of Max       Flood    Ponded
                        Hours       Rate    Occurrence      Volume     Depth
  Node                 Flooded       CMS   days hr:min    10^6 ltr    Meters
  --------------------------------------------------------------------------
  CSO7                    0.81     0.057      0  02:04       0.098     0.000
  CSO9                    0.57     0.066      0  02:02       0.085     0.000
  CSO8                    0.61     0.314      0  02:01       0.415     0.000
  CSO10                   0.62     0.137      0  02:01       0.182     0.000
  T5                      1.58     0.365      0  02:12       0.595     0.000
  T4                      1.84     0.106      0  02:49       0.220     0.000
  T6                      2.90     0.847      0  02:07       2.377     0.000
  T3                      0.86     0.334      0  03:37       0.268     0.000
  T2                      1.68     0.210      0  02:36       0.437     0.000
  T1                      1.57     1.059      0  02:04       2.331     0.000
  
  
  **********************
  Storage Volume Summary
  **********************
  
  --------------------------------------------------------------------------------------------------
                         Average     Avg  Evap Exfil       Maximum     Max    Time of Max    Maximum
                          Volume    Pcnt  Pcnt  Pcnt        Volume    Pcnt     Occurrence    Outflow
  Storage Unit           1000 m3    Full  Loss  Loss       1000 m3    Full    days hr:min        CMS
  --------------------------------------------------------------------------------------------------
  T5                       0.365      73     0     0         0.500     100       0  02:12      0.039
  T4                       0.362      72     0     0         0.500     100       0  02:49      0.028
  T6                       0.455      76     0     0         0.600     100       0  02:07      0.075
  T3                       1.880      72     0     0         2.600     100       0  03:37      0.233
  T2                       0.743      74     0     0         1.000     100       0  02:36      0.033
  T1                       0.505      72     0     0         0.700     100       0  02:02      0.271
  
  
  ***********************
  Outfall Loading Summary
  ***********************
  
  -----------------------------------------------------------
                         Flow       Avg       Max       Total
                         Freq      Flow      Flow      Volume
  Outfall Node           Pcnt       CMS       CMS    10^6 ltr
  -----------------------------------------------------------
  Out_to_WWTP           99.01     0.212     0.271       5.921
  -----------------------------------------------------------
  System                99.01     0.212     0.271       5.921
  
  
  ********************
  Link Flow Summary
  ********************
  
  -----------------------------------------------------------------------------
                                 Maximum  Time of Max   Maximum    Max/    Max/
                                  |Flow|   Occurrence   |Veloc|    Full    Full
  Link                 Type          CMS  days hr:min     m/sec    Flow   Depth
  -----------------------------------------------------------------------------
  C1                   CONDUIT     0.039     0  03:01      1.06    0.01    0.11
  C6                   CONDUIT     0.072     0  02:05      1.28    1.14    0.78
  C2                   CONDUIT     0.028     0  03:37      1.01    0.03    0.18
  C9                   CONDUIT     0.127     0  02:23      1.30    0.43    0.54
  C16                  CONDUIT     0.488     0  01:53      1.80    0.05    0.15
  C3                   CONDUIT     0.124     0  05:12      1.81    0.05    0.14
  C19                  CONDUIT     0.033     0  03:33      0.65    0.01    0.23
  C11                  CONDUIT     0.191     0  04:36      1.75    0.01    0.12
  C20                  CONDUIT     1.016     0  02:00      3.25    0.03    0.16
  C22                  CONDUIT     0.202     0  02:21      1.60    0.09    0.34
  C12                  CONDUIT     0.075     0  03:47      0.59    0.01    0.28
  C17                  CONDUIT     1.068     0  02:00      3.18    0.05    0.28
  C10                  CONDUIT     0.923     0  02:07      1.66    0.09    0.60
  C13                  CONDUIT     1.119     0  02:03      1.45    0.07    0.75
  C18                  CONDUIT     0.694     0  02:00      1.72    0.03    0.56
  C23                  CONDUIT     1.330     0  02:04      1.24    0.15    0.63
  C4                   CONDUIT     0.484     0  02:01      1.98    0.12    0.62
  C7                   CONDUIT     0.249     0  02:05      1.43    0.06    0.58
  C14                  CONDUIT     0.271     0  02:03      2.08    0.02    0.09
  C5                   CONDUIT     0.076     0  01:46      1.48    1.30    1.00
  C8                   CONDUIT     0.127     0  02:22      1.76    1.60    0.86
  C15                  CONDUIT     0.486     0  02:22      3.43    1.55    0.83
  C21                  CONDUIT     0.202     0  02:21      1.83    1.16    0.69
  V4                   ORIFICE     0.028     0  02:49                      0.35
  V5                   ORIFICE     0.039     0  02:12                      1.00
  V1                   ORIFICE     0.271     0  02:02                      1.00
  V6                   ORIFICE     0.075     0  02:07                      0.43
  V3                   ORIFICE     0.124     0  04:25                      0.65
  V2                   ORIFICE     0.033     0  02:36                      0.24
  
  
  ***************************
  Flow Classification Summary
  ***************************
  
  -------------------------------------------------------------------------------------
                      Adjusted    ---------- Fraction of Time in Flow Class ---------- 
                       /Actual         Up    Down  Sub   Sup   Up    Down  Norm  Inlet 
  Conduit               Length    Dry  Dry   Dry   Crit  Crit  Crit  Crit  Ltd   Ctrl  
  -------------------------------------------------------------------------------------
  C1                      1.00   0.00  0.00  0.00  0.23  0.77  0.00  0.00  0.94  0.00
  C6                      1.00   0.00  0.00  0.00  0.18  0.82  0.00  0.00  0.00  0.00
  C2                      1.00   0.00  0.00  0.00  0.46  0.53  0.00  0.00  0.95  0.00
  C9                      1.00   0.00  0.00  0.00  1.00  0.00  0.00  0.00  1.00  0.00
  C16                     1.00   0.00  0.00  0.00  0.57  0.43  0.00  0.00  0.50  0.00
  C3                      1.00   0.00  0.00  0.00  0.05  0.95  0.00  0.00  0.48  0.00
  C19                     1.00   0.00  0.00  0.00  1.00  0.00  0.00  0.00  1.00  0.00
  C11                     1.00   0.00  0.00  0.00  0.35  0.65  0.00  0.00  1.00  0.00
  C20                     1.00   0.00  0.00  0.00  0.55  0.45  0.00  0.00  0.98  0.00
  C22                     1.00   0.00  0.00  0.00  0.77  0.23  0.00  0.00  1.00  0.00
  C12                     1.00   0.00  0.00  0.00  1.00  0.00  0.00  0.00  1.00  0.00
  C17                     1.00   0.00  0.00  0.00  0.66  0.34  0.00  0.00  0.93  0.00
  C10                     1.00   0.00  0.00  0.00  0.96  0.04  0.00  0.00  0.97  0.00
  C13                     1.00   0.00  0.00  0.00  0.85  0.15  0.00  0.00  0.24  0.00
  C18                     1.00   0.00  0.00  0.00  0.94  0.06  0.00  0.00  0.97  0.00
  C23                     1.00   0.00  0.00  0.00  0.85  0.15  0.00  0.00  0.94  0.00
  C4                      1.00   0.00  0.00  0.00  0.96  0.04  0.00  0.00  0.98  0.00
  C7                      1.00   0.00  0.00  0.00  0.94  0.06  0.00  0.00  0.97  0.00
  C14                     1.00   0.00  0.00  0.00  0.00  0.99  0.00  0.00  0.33  0.00
  C5                      1.00   0.00  0.00  0.00  0.91  0.09  0.00  0.00  0.83  0.00
  C8                      1.00   0.00  0.00  0.00  0.19  0.81  0.00  0.00  0.00  0.00
  C15                     1.00   0.00  0.00  0.00  0.00  1.00  0.00  0.00  0.00  0.00
  C21                     1.00   0.00  0.00  0.00  0.01  0.99  0.00  0.00  0.00  0.00
  
  
  *************************
  Conduit Surcharge Summary
  *************************
  
  ----------------------------------------------------------------------------
                                                           Hours        Hours 
                         --------- Hours Full --------   Above Full   Capacity
  Conduit                Both Ends  Upstream  Dnstream   Normal Flow   Limited
  ----------------------------------------------------------------------------
  C6                          0.01      1.18      0.01      0.92         0.01
  C10                         0.01      0.01      6.11      0.01         0.01
  C13                         0.01      0.01      5.82      0.01         0.01
  C18                         0.01      0.01      5.90      0.01         0.01
  C23                         0.01      0.01      6.17      0.01         0.01
  C4                          0.01      0.01      6.26      0.01         0.01
  C7                          0.01      0.01      6.06      0.01         0.01
  C5                          1.16      1.18      1.35      1.17         1.08
  C8                          0.01      1.07      0.01      1.07         0.01
  C15                         0.01      0.99      0.01      1.05         0.01
  C21                         0.01      0.75      0.01      0.73         0.01
  

  Analysis begun on:  Fri Sep  3 19:43:42 2021
  Analysis ended on:  Fri Sep  3 19:43:42 2021
  Total elapsed time: < 1 sec