
  EPA STORM WATER MANAGEMENT MODEL - VERSION 5.1 (Build 5.3.0.dev0)
  --------------------------------------------------------------

  
  *********************************************************
  NOTE: The summary statistics displayed in this report are
  based on results found at every computational time step,  
  not just on results from each reporting time step.
  *********************************************************
  
  ****************
  Analysis Options
  ****************
  Flow Units ............... CMS
  Process Models:
    Rainfall/Runoff ........ YES
    RDII ................... NO
    Snowmelt ............... NO
    Groundwater ............ NO
    Flow Routing ........... YES
    Ponding Allowed ........ YES
    Water Quality .......... NO
  Infiltration Method ...... HORTON
  Flow Routing Method ...... DYNWAVE
  Surcharge Method ......... EXTRAN
  Starting Date ............ 08/28/2015 08:00:00
  Ending Date .............. 08/28/2015 15:50:00
  Antecedent Dry Days ...... 0.0
  Report Time Step ......... 00:01:00
  Wet Time Step ............ 00:01:00
  Dry Time Step ............ 00:01:00
  Routing Time Step ........ 5.00 sec
  Variable Time Step ....... YES
  Maximum Trials ........... 8
  Number of Threads ........ 1
  Head Tolerance ........... 0.001500 m
  
  
  **************************        Volume         Depth
  Runoff Quantity Continuity     hectare-m            mm
  **************************     ---------       -------
  Total Precipitation ......         1.557         8.640
  Evaporation Loss .........         0.000         0.000
  Infiltration Loss ........         0.000         0.000
  Surface Runoff ...........         1.534         8.513
  Final Storage ............         0.023         0.127
  Continuity Error (%) .....        -0.007
  
  
  **************************        Volume        Volume
  Flow Routing Continuity        hectare-m      10^6 ltr
  **************************     ---------     ---------
  Dry Weather Inflow .......         0.396         3.956
  Wet Weather Inflow .......         1.534        15.342
  Groundwater Inflow .......         0.000         0.000
  RDII Inflow ..............         0.000         0.000
  External Inflow ..........         0.000         0.000
  External Outflow .........         0.573         5.734
  Flooding Loss ............         0.333         3.329
  Evaporation Loss .........         0.000         0.000
  Exfiltration Loss ........         0.000         0.000
  Initial Stored Volume ....         0.000         0.000
  Final Stored Volume ......         0.776         7.762
  Continuity Error (%) .....        12.812
  
  
  *************************
  Highest Continuity Errors
  *************************
  Node T2 (36.40%)
  Node T4 (23.28%)
  Node T3 (22.42%)
  Node T5 (20.96%)
  Node T6 (15.94%)
  
  
  ***************************
  Time-Step Critical Elements
  ***************************
  None
  
  
  ********************************
  Highest Flow Instability Indexes
  ********************************
  Link C13 (2)
  
  
  *************************
  Routing Time Step Summary
  *************************
  Minimum Time Step           :     1.03 sec
  Average Time Step           :     5.00 sec
  Maximum Time Step           :     5.00 sec
  Percent in Steady State     :     0.00
  Average Iterations per Step :     2.16
  Percent Not Converging      :     0.23
  
  
  ***************************
  Subcatchment Runoff Summary
  ***************************
  
  ------------------------------------------------------------------------------------------------------------------------------
                            Total      Total      Total      Total     Imperv       Perv      Total       Total     Peak  Runoff
                           Precip      Runon       Evap      Infil     Runoff     Runoff     Runoff      Runoff   Runoff   Coeff
  Subcatchment                 mm         mm         mm         mm         mm         mm         mm    10^6 ltr      CMS
  ------------------------------------------------------------------------------------------------------------------------------
  SC01                       8.64       0.00       0.00       0.00       8.56       0.00       8.56        2.82     0.67   0.990
  SC02                       8.64       0.00       0.00       0.00       8.55       0.00       8.55        1.95     0.45   0.990
  SC03                       8.64       0.00       0.00       0.00       8.57       0.00       8.57        1.54     0.39   0.992
  SC04                       8.64       0.00       0.00       0.00       8.45       0.00       8.45        0.58     0.11   0.978
  SC05                       8.64       0.00       0.00       0.00       8.55       0.00       8.55        1.33     0.31   0.990
  SC06                       8.64       0.00       0.00       0.00       8.40       0.00       8.40        2.74     0.48   0.973
  SC07                       8.64       0.00       0.00       0.00       8.45       0.00       8.45        0.40     0.08   0.978
  SC08                       8.64       0.00       0.00       0.00       8.53       0.00       8.53        2.39     0.52   0.987
  SC09                       8.64       0.00       0.00       0.00       8.50       0.00       8.50        0.59     0.12   0.984
  SC010                      8.64       0.00       0.00       0.00       8.53       0.00       8.53        1.00     0.22   0.987
  
  
  ******************
  Node Depth Summary
  ******************
  
  ---------------------------------------------------------------------------------
                                 Average  Maximum  Maximum  Time of Max    Reported
                                   Depth    Depth      HGL   Occurrence   Max Depth
  Node                 Type       Meters   Meters   Meters  days hr:min      Meters
  ---------------------------------------------------------------------------------
  J1                   JUNCTION     0.08     0.19    34.19     0  01:53        0.19
  J3                   JUNCTION     0.10     0.14    18.14     0  05:25        0.14
  CSO7                 JUNCTION     0.20     1.20    35.20     0  01:49        1.20
  J5                   JUNCTION     0.07     0.15    32.15     0  02:00        0.15
  CSO9                 JUNCTION     0.23     2.00    42.00     0  01:53        2.00
  J8                   JUNCTION     0.12     0.26    36.26     0  02:02        0.26
  CSO8                 JUNCTION     0.25     2.00    34.00     0  01:48        2.00
  J10                  JUNCTION     0.10     0.28    29.28     0  01:53        0.28
  J13                  JUNCTION     0.07     0.18    29.18     0  01:53        0.18
  J15                  JUNCTION     0.17     0.33    15.33     0  01:57        0.33
  J16                  JUNCTION     0.07     0.20    30.20     0  01:52        0.20
  CSO10                JUNCTION     0.16     1.00    31.00     0  01:46        1.00
  J12                  JUNCTION     0.51     0.82    26.82     0  05:10        0.82
  J4                   JUNCTION     0.18     1.55    34.55     0  01:49        1.41
  J6                   JUNCTION     0.06     0.07    25.07     0  04:13        0.07
  J2                   JUNCTION     0.07     0.08    25.08     0  03:24        0.08
  J19                  JUNCTION     0.14     0.17     8.17     0  02:10        0.17
  J9                   JUNCTION     0.09     0.11    29.11     0  03:47        0.11
  J14                  JUNCTION     0.10     0.15    20.15     0  07:01        0.15
  J17                  JUNCTION     0.06     0.07    20.07     0  04:16        0.07
  J7                   JUNCTION     0.09     0.23    39.23     0  01:58        0.23
  J11                  JUNCTION     0.11     0.30    31.30     0  02:03        0.30
  J18                  JUNCTION     0.06     0.16    29.16     0  02:04        0.16
  Out_to_WWTP          OUTFALL      0.14     0.17     6.17     0  03:44        0.17
  T5                   STORAGE      3.57     5.00    32.00     0  02:38        5.00
  T4                   STORAGE      3.46     5.00    32.00     0  03:27        5.00
  T6                   STORAGE      3.71     5.00    36.00     0  02:17        5.00
  T3                   STORAGE      3.38     4.82    26.82     0  05:06        4.82
  T2                   STORAGE      3.45     4.82    25.82     0  06:30        4.82
  T1                   STORAGE      3.41     5.00    15.00     0  02:09        5.00
  
  
  *******************
  Node Inflow Summary
  *******************
  
  -------------------------------------------------------------------------------------------------
                                  Maximum  Maximum                  Lateral       Total        Flow
                                  Lateral    Total  Time of Max      Inflow      Inflow     Balance
                                   Inflow   Inflow   Occurrence      Volume      Volume       Error
  Node                 Type           CMS      CMS  days hr:min    10^6 ltr    10^6 ltr     Percent
  -------------------------------------------------------------------------------------------------
  J1                   JUNCTION     0.328    0.328     0  01:53         1.9         1.9       0.014
  J3                   JUNCTION     0.000    0.188     0  05:14           0        3.35       1.133
  CSO7                 JUNCTION     0.086    0.086     0  02:00       0.692       0.692       0.064
  J5                   JUNCTION     0.114    0.185     0  02:00       0.711        1.38       0.101
  CSO9                 JUNCTION     0.127    0.127     0  01:56       0.783       0.783       0.037
  J8                   JUNCTION     0.514    0.640     0  02:01        3.68        4.46       0.103
  CSO8                 JUNCTION     0.530    0.530     0  01:54        2.68        2.68       0.010
  J10                  JUNCTION     0.402    0.885     0  01:51        1.93        4.57       0.036
  J13                  JUNCTION     0.468    0.468     0  01:53        2.41        2.41      -0.222
  J15                  JUNCTION     0.000    0.988     0  01:54           0        8.43       1.006
  J16                  JUNCTION     0.687    0.687     0  01:52        3.38        3.38      -0.012
  CSO10                JUNCTION     0.225    0.225     0  01:54        1.14        1.14       0.013
  J12                  JUNCTION     0.000    0.925     0  01:53           0        6.44       9.415
  J4                   JUNCTION     0.000    0.077     0  01:49           0       0.672       0.480
  J6                   JUNCTION     0.000    0.028     0  03:27           0       0.577       0.688
  J2                   JUNCTION     0.000    0.039     0  02:38           0       0.867       0.586
  J19                  JUNCTION     0.000    0.271     0  02:09           0        5.75       0.198
  J9                   JUNCTION     0.000    0.075     0  02:17           0         1.7       1.026
  J14                  JUNCTION     0.000    0.121     0  05:14           0        1.93       0.378
  J17                  JUNCTION     0.000    0.033     0  06:40           0       0.617       1.064
  J7                   JUNCTION     0.000    0.127     0  01:57           0       0.782       0.403
  J11                  JUNCTION     0.000    0.486     0  02:03           0        2.65       0.237
  J18                  JUNCTION     0.000    0.202     0  02:04           0        1.13       0.074
  Out_to_WWTP          OUTFALL      0.000    0.271     0  02:11           0        5.73       0.000
  T5                   STORAGE      0.000    0.328     0  01:53           0         1.9      26.518
  T4                   STORAGE      0.000    0.185     0  02:01           0        1.38      30.339
  T6                   STORAGE      0.000    0.639     0  02:02           0        4.45      18.963
  T3                   STORAGE      0.000    0.914     0  01:56           0        5.88      28.898
  T2                   STORAGE      0.000    0.468     0  01:53           0        2.42      57.223
  T1                   STORAGE      0.000    0.974     0  01:57           0        8.34       8.110
  
  
  **********************
  Node Surcharge Summary
  **********************
  
  Surcharging occurs when water rises above the top of the highest conduit.
  ---------------------------------------------------------------------
                                               Max. Height   Min. Depth
                                   Hours       Above Crown    Below Rim
  Node                 Type      Surcharged         Meters       Meters
  ---------------------------------------------------------------------
  CSO7                 JUNCTION        0.96          0.945        0.000
  CSO9                 JUNCTION        0.91          1.682        0.000
  CSO8                 JUNCTION        0.83          1.547        0.000
  CSO10                JUNCTION        0.52          0.560        0.000
  J4                   JUNCTION        0.95          1.248        0.452
  
  
  *********************
  Node Flooding Summary
  *********************
  
  Flooding refers to all water that overflows a node, whether it ponds or not.
  --------------------------------------------------------------------------
                                                             Total   Maximum
                                 Maximum   Time of Max       Flood    Ponded
                        Hours       Rate    Occurrence      Volume     Depth
  Node                 Flooded       CMS   days hr:min    10^6 ltr    Meters
  --------------------------------------------------------------------------
  CSO7                    0.55     0.015      0  02:00       0.019     0.000
  CSO9                    0.06     0.000      0  01:55       0.000     0.000
  CSO8                    0.26     0.044      0  01:54       0.027     0.000
  CSO10                   0.29     0.023      0  01:54       0.015     0.000
  T5                      1.14     0.127      0  02:38       0.233     0.000
  T4                      1.17     0.032      0  03:27       0.042     0.000
  T6                      2.72     0.500      0  02:17       1.541     0.000
  T1                      1.42     0.625      0  02:09       1.451     0.000
  
  
  **********************
  Storage Volume Summary
  **********************
  
  --------------------------------------------------------------------------------------------------
                         Average     Avg  Evap Exfil       Maximum     Max    Time of Max    Maximum
                          Volume    Pcnt  Pcnt  Pcnt        Volume    Pcnt     Occurrence    Outflow
  Storage Unit           1000 m3    Full  Loss  Loss       1000 m3    Full    days hr:min        CMS
  --------------------------------------------------------------------------------------------------
  T5                       0.357      71     0     0         0.500     100       0  02:38      0.039
  T4                       0.346      69     0     0         0.500     100       0  03:27      0.028
  T6                       0.445      74     0     0         0.600     100       0  02:17      0.075
  T3                       1.759      68     0     0         2.507      96       0  05:06      0.170
  T2                       0.689      69     0     0         0.963      96       0  06:30      0.033
  T1                       0.477      68     0     0         0.700     100       0  02:09      0.271
  
  
  ***********************
  Outfall Loading Summary
  ***********************
  
  -----------------------------------------------------------
                         Flow       Avg       Max       Total
                         Freq      Flow      Flow      Volume
  Outfall Node           Pcnt       CMS       CMS    10^6 ltr
  -----------------------------------------------------------
  Out_to_WWTP           99.01     0.205     0.271       5.734
  -----------------------------------------------------------
  System                99.01     0.205     0.271       5.734
  
  
  ********************
  Link Flow Summary
  ********************
  
  -----------------------------------------------------------------------------
                                 Maximum  Time of Max   Maximum    Max/    Max/
                                  |Flow|   Occurrence   |Veloc|    Full    Full
  Link                 Type          CMS  days hr:min     m/sec    Flow   Depth
  -----------------------------------------------------------------------------
  C1                   CONDUIT     0.039     0  03:24      1.06    0.01    0.11
  C6                   CONDUIT     0.071     0  02:00      1.28    1.13    0.74
  C2                   CONDUIT     0.028     0  04:12      1.01    0.03    0.17
  C9                   CONDUIT     0.126     0  01:58      1.33    0.43    0.49
  C16                  CONDUIT     0.486     0  01:54      1.77    0.05    0.14
  C3                   CONDUIT     0.121     0  05:15      1.80    0.05    0.14
  C19                  CONDUIT     0.032     0  04:16      0.68    0.01    0.20
  C11                  CONDUIT     0.187     0  05:25      1.74    0.01    0.11
  C20                  CONDUIT     0.687     0  01:52      2.85    0.02    0.13
  C22                  CONDUIT     0.202     0  02:04      1.61    0.09    0.31
  C12                  CONDUIT     0.075     0  03:46      0.59    0.01    0.23
  C17                  CONDUIT     0.880     0  01:53      3.04    0.04    0.22
  C10                  CONDUIT     0.639     0  02:02      1.66    0.07    0.59
  C13                  CONDUIT     0.914     0  01:56      1.45    0.05    0.70
  C18                  CONDUIT     0.468     0  01:53      1.72    0.02    0.54
  C23                  CONDUIT     0.974     0  01:57      1.24    0.11    0.61
  C4                   CONDUIT     0.328     0  01:53      1.98    0.08    0.60
  C7                   CONDUIT     0.185     0  02:01      1.43    0.05    0.57
  C14                  CONDUIT     0.271     0  02:11      2.08    0.02    0.09
  C5                   CONDUIT     0.077     0  01:49      1.51    1.32    1.00
  C8                   CONDUIT     0.127     0  01:57      1.75    1.60    0.86
  C15                  CONDUIT     0.486     0  02:03      3.43    1.55    0.83
  C21                  CONDUIT     0.202     0  02:04      1.83    1.16    0.69
  V4                   ORIFICE     0.028     0  03:27                      0.35
  V5                   ORIFICE     0.039     0  02:38                      1.00
  V1                   ORIFICE     0.271     0  02:09                      1.00
  V6                   ORIFICE     0.075     0  02:17                      0.43
  V3                   ORIFICE     0.121     0  05:14                      0.65
  V2                   ORIFICE     0.033     0  06:40                      0.24
  
  
  ***************************
  Flow Classification Summary
  ***************************
  
  -------------------------------------------------------------------------------------
                      Adjusted    ---------- Fraction of Time in Flow Class ---------- 
                       /Actual         Up    Down  Sub   Sup   Up    Down  Norm  Inlet 
  Conduit               Length    Dry  Dry   Dry   Crit  Crit  Crit  Crit  Ltd   Ctrl  
  -------------------------------------------------------------------------------------
  C1                      1.00   0.00  0.00  0.00  0.18  0.82  0.00  0.00  0.94  0.00
  C6                      1.00   0.00  0.00  0.00  0.15  0.85  0.00  0.00  0.00  0.00
  C2                      1.00   0.00  0.00  0.00  0.35  0.64  0.00  0.00  0.95  0.00
  C9                      1.00   0.00  0.00  0.00  1.00  0.00  0.00  0.00  1.00  0.00
  C16                     1.00   0.00  0.00  0.00  0.58  0.42  0.00  0.00  0.47  0.00
  C3                      1.00   0.00  0.00  0.00  0.05  0.95  0.00  0.00  0.56  0.00
  C19                     1.00   0.00  0.00  0.00  1.00  0.00  0.00  0.00  1.00  0.00
  C11                     1.00   0.00  0.00  0.00  0.35  0.65  0.00  0.00  1.00  0.00
  C20                     1.00   0.00  0.00  0.00  0.55  0.45  0.00  0.00  0.98  0.00
  C22                     1.00   0.00  0.00  0.00  0.74  0.26  0.00  0.00  1.00  0.00
  C12                     1.00   0.00  0.00  0.00  1.00  0.00  0.00  0.00  1.00  0.00
  C17                     1.00   0.00  0.00  0.00  0.61  0.39  0.00  0.00  0.93  0.00
  C10                     1.00   0.00  0.00  0.00  0.96  0.04  0.00  0.00  0.97  0.00
  C13                     1.00   0.00  0.00  0.00  0.86  0.14  0.00  0.00  0.29  0.00
  C18                     1.00   0.00  0.00  0.00  0.94  0.06  0.00  0.00  0.97  0.00
  C23                     1.00   0.00  0.00  0.00  0.86  0.14  0.00  0.00  0.94  0.00
  C4                      1.00   0.00  0.00  0.00  0.96  0.04  0.00  0.00  0.98  0.00
  C7                      1.00   0.00  0.00  0.00  0.94  0.06  0.00  0.00  0.97  0.00
  C14                     1.00   0.00  0.00  0.00  0.00  0.99  0.00  0.00  0.16  0.00
  C5                      1.00   0.00  0.00  0.00  0.91  0.09  0.00  0.00  0.85  0.00
  C8                      1.00   0.00  0.00  0.00  0.16  0.84  0.00  0.00  0.00  0.00
  C15                     1.00   0.00  0.00  0.00  0.00  1.00  0.00  0.00  0.00  0.00
  C21                     1.00   0.00  0.00  0.00  0.01  0.99  0.00  0.00  0.00  0.00
  
  
  *************************
  Conduit Surcharge Summary
  *************************
  
  ----------------------------------------------------------------------------
                                                           Hours        Hours 
                         --------- Hours Full --------   Above Full   Capacity
  Conduit                Both Ends  Upstream  Dnstream   Normal Flow   Limited
  ----------------------------------------------------------------------------
  C6                          0.01      0.95      0.01      0.72         0.01
  C10                         0.01      0.01      6.04      0.01         0.01
  C13                         0.01      0.01      5.73      0.01         0.01
  C18                         0.01      0.01      5.82      0.01         0.01
  C23                         0.01      0.01      6.10      0.01         0.01
  C4                          0.01      0.01      6.19      0.01         0.01
  C7                          0.01      0.01      5.99      0.01         0.01
  C5                          0.94      0.96      1.09      0.95         0.87
  C8                          0.01      0.91      0.01      0.89         0.01
  C15                         0.01      0.83      0.01      0.88         0.01
  C21                         0.01      0.52      0.01      0.47         0.01
  

  Analysis begun on:  Fri Sep  3 19:49:47 2021
  Analysis ended on:  Fri Sep  3 19:49:47 2021
  Total elapsed time: < 1 sec