
  EPA STORM WATER MANAGEMENT MODEL - VERSION 5.1 (Build 5.3.0.dev0)
  --------------------------------------------------------------

  
  *********************************************************
  NOTE: The summary statistics displayed in this report are
  based on results found at every computational time step,  
  not just on results from each reporting time step.
  *********************************************************
  
  ****************
  Analysis Options
  ****************
  Flow Units ............... CMS
  Process Models:
    Rainfall/Runoff ........ YES
    RDII ................... NO
    Snowmelt ............... NO
    Groundwater ............ NO
    Flow Routing ........... YES
    Ponding Allowed ........ YES
    Water Quality .......... NO
  Infiltration Method ...... HORTON
  Flow Routing Method ...... DYNWAVE
  Surcharge Method ......... EXTRAN
  Starting Date ............ 08/28/2015 08:00:00
  Ending Date .............. 08/28/2015 15:50:00
  Antecedent Dry Days ...... 0.0
  Report Time Step ......... 00:01:00
  Wet Time Step ............ 00:01:00
  Dry Time Step ............ 00:01:00
  Routing Time Step ........ 5.00 sec
  Variable Time Step ....... YES
  Maximum Trials ........... 8
  Number of Threads ........ 1
  Head Tolerance ........... 0.001500 m
  
  
  **************************        Volume         Depth
  Runoff Quantity Continuity     hectare-m            mm
  **************************     ---------       -------
  Total Precipitation ......         1.727         9.586
  Evaporation Loss .........         0.000         0.000
  Infiltration Loss ........         0.000         0.000
  Surface Runoff ...........         1.704         9.457
  Final Storage ............         0.023         0.129
  Continuity Error (%) .....        -0.006
  
  
  **************************        Volume        Volume
  Flow Routing Continuity        hectare-m      10^6 ltr
  **************************     ---------     ---------
  Dry Weather Inflow .......         0.396         3.955
  Wet Weather Inflow .......         1.704        17.042
  Groundwater Inflow .......         0.000         0.000
  RDII Inflow ..............         0.000         0.000
  External Inflow ..........         0.000         0.000
  External Outflow .........         0.561         5.605
  Flooding Loss ............         0.479         4.787
  Evaporation Loss .........         0.000         0.000
  Exfiltration Loss ........         0.000         0.000
  Initial Stored Volume ....         0.000         0.000
  Final Stored Volume ......         0.806         8.060
  Continuity Error (%) .....        12.124
  
  
  *************************
  Highest Continuity Errors
  *************************
  Node T2 (33.89%)
  Node T4 (22.77%)
  Node T3 (22.04%)
  Node T5 (19.50%)
  Node T6 (14.88%)
  
  
  ***************************
  Time-Step Critical Elements
  ***************************
  None
  
  
  ********************************
  Highest Flow Instability Indexes
  ********************************
  Link C13 (1)
  
  
  *************************
  Routing Time Step Summary
  *************************
  Minimum Time Step           :     4.50 sec
  Average Time Step           :     5.00 sec
  Maximum Time Step           :     5.00 sec
  Percent in Steady State     :     0.00
  Average Iterations per Step :     2.20
  Percent Not Converging      :     0.73
  
  
  ***************************
  Subcatchment Runoff Summary
  ***************************
  
  ------------------------------------------------------------------------------------------------------------------------------
                            Total      Total      Total      Total     Imperv       Perv      Total       Total     Peak  Runoff
                           Precip      Runon       Evap      Infil     Runoff     Runoff     Runoff      Runoff   Runoff   Coeff
  Subcatchment                 mm         mm         mm         mm         mm         mm         mm    10^6 ltr      CMS
  ------------------------------------------------------------------------------------------------------------------------------
  SC01                       9.59       0.00       0.00       0.00       9.50       0.00       9.50        3.14     0.77   0.991
  SC02                       9.59       0.00       0.00       0.00       9.50       0.00       9.50        2.16     0.52   0.991
  SC03                       9.59       0.00       0.00       0.00       9.52       0.00       9.52        1.71     0.44   0.993
  SC04                       9.59       0.00       0.00       0.00       9.39       0.00       9.39        0.65     0.13   0.980
  SC05                       9.59       0.00       0.00       0.00       9.50       0.00       9.50        1.48     0.36   0.990
  SC06                       9.59       0.00       0.00       0.00       9.34       0.00       9.34        3.04     0.59   0.975
  SC07                       9.59       0.00       0.00       0.00       9.40       0.00       9.40        0.45     0.09   0.980
  SC08                       9.59       0.00       0.00       0.00       9.47       0.00       9.47        2.65     0.61   0.988
  SC09                       9.59       0.00       0.00       0.00       9.45       0.00       9.45        0.65     0.14   0.985
  SC010                      9.59       0.00       0.00       0.00       9.47       0.00       9.47        1.11     0.26   0.988
  
  
  ******************
  Node Depth Summary
  ******************
  
  ---------------------------------------------------------------------------------
                                 Average  Maximum  Maximum  Time of Max    Reported
                                   Depth    Depth      HGL   Occurrence   Max Depth
  Node                 Type       Meters   Meters   Meters  days hr:min      Meters
  ---------------------------------------------------------------------------------
  J1                   JUNCTION     0.08     0.20    34.20     0  02:19        0.20
  J3                   JUNCTION     0.10     0.14    18.14     0  06:01        0.14
  CSO7                 JUNCTION     0.23     1.20    35.20     0  02:08        1.20
  J5                   JUNCTION     0.07     0.15    32.15     0  02:23        0.15
  CSO9                 JUNCTION     0.28     2.00    42.00     0  02:12        2.00
  J8                   JUNCTION     0.12     0.28    36.28     0  02:25        0.28
  CSO8                 JUNCTION     0.30     2.00    34.00     0  02:10        2.00
  J10                  JUNCTION     0.10     0.29    29.29     0  02:18        0.29
  J13                  JUNCTION     0.07     0.20    29.20     0  02:19        0.20
  J15                  JUNCTION     0.17     0.35    15.35     0  02:22        0.35
  J16                  JUNCTION     0.07     0.22    30.22     0  02:19        0.22
  CSO10                JUNCTION     0.18     1.00    31.00     0  02:10        1.00
  J12                  JUNCTION     0.61     1.01    27.01     0  05:32        1.01
  J4                   JUNCTION     0.19     1.29    34.29     0  02:08        0.84
  J6                   JUNCTION     0.06     0.07    25.07     0  04:11        0.07
  J2                   JUNCTION     0.07     0.08    25.08     0  03:25        0.08
  J19                  JUNCTION     0.14     0.17     8.17     0  02:23        0.17
  J9                   JUNCTION     0.09     0.11    29.11     0  04:04        0.11
  J14                  JUNCTION     0.10     0.15    20.15     0  05:51        0.15
  J17                  JUNCTION     0.06     0.08    20.08     0  04:02        0.08
  J7                   JUNCTION     0.09     0.23    39.23     0  02:36        0.23
  J11                  JUNCTION     0.11     0.30    31.30     0  02:37        0.30
  J18                  JUNCTION     0.06     0.16    29.16     0  02:38        0.16
  Out_to_WWTP          OUTFALL      0.14     0.17     6.17     0  03:50        0.17
  T5                   STORAGE      3.49     5.00    32.00     0  02:37        5.00
  T4                   STORAGE      3.43     5.00    32.00     0  03:11        5.00
  T6                   STORAGE      3.62     5.00    36.00     0  02:27        5.00
  T3                   STORAGE      3.42     5.00    27.00     0  05:16        5.00
  T2                   STORAGE      3.50     5.00    26.00     0  03:08        5.00
  T1                   STORAGE      3.29     5.00    15.00     0  02:22        5.00
  
  
  *******************
  Node Inflow Summary
  *******************
  
  -------------------------------------------------------------------------------------------------
                                  Maximum  Maximum                  Lateral       Total        Flow
                                  Lateral    Total  Time of Max      Inflow      Inflow     Balance
                                   Inflow   Inflow   Occurrence      Volume      Volume       Error
  Node                 Type           CMS      CMS  days hr:min    10^6 ltr    10^6 ltr     Percent
  -------------------------------------------------------------------------------------------------
  J1                   JUNCTION     0.377    0.377     0  02:19        2.04        2.04       0.018
  J3                   JUNCTION     0.000    0.189     0  05:52           0        3.26       1.174
  CSO7                 JUNCTION     0.103    0.103     0  02:23       0.737       0.737       0.063
  J5                   JUNCTION     0.138    0.209     0  02:23       0.776        1.45       0.102
  CSO9                 JUNCTION     0.151    0.151     0  02:21       0.848       0.848       0.047
  J8                   JUNCTION     0.627    0.754     0  02:25        3.98         4.8       0.103
  CSO8                 JUNCTION     0.618    0.618     0  02:20        2.94        2.94       0.016
  J10                  JUNCTION     0.454    0.942     0  02:17         2.1        4.91       0.005
  J13                  JUNCTION     0.538    0.538     0  02:19        2.63        2.63      -0.172
  J15                  JUNCTION     0.000    1.121     0  02:19           0        8.77       0.980
  J16                  JUNCTION     0.785    0.785     0  02:18        3.69        3.69      -0.010
  CSO10                JUNCTION     0.262    0.262     0  02:20        1.25        1.25       0.018
  J12                  JUNCTION     0.000    1.000     0  02:19           0        6.87      11.516
  J4                   JUNCTION     0.000    0.074     0  02:08           0       0.682       0.489
  J6                   JUNCTION     0.000    0.028     0  03:20           0       0.542       0.741
  J2                   JUNCTION     0.000    0.039     0  02:37           0       0.853       0.597
  J19                  JUNCTION     0.000    0.271     0  02:22           0        5.62       0.205
  J9                   JUNCTION     0.000    0.075     0  02:28           0        1.67       1.035
  J14                  JUNCTION     0.000    0.124     0  05:50           0        1.88       0.392
  J17                  JUNCTION     0.000    0.033     0  03:08           0        0.67       0.988
  J7                   JUNCTION     0.000    0.127     0  02:36           0       0.826       0.379
  J11                  JUNCTION     0.000    0.486     0  02:37           0        2.81       0.222
  J18                  JUNCTION     0.000    0.202     0  02:38           0        1.19       0.070
  Out_to_WWTP          OUTFALL      0.000    0.271     0  02:23           0        5.61       0.000
  T5                   STORAGE      0.000    0.377     0  02:19           0        2.04      24.220
  T4                   STORAGE      0.000    0.209     0  02:23           0        1.45      29.486
  T6                   STORAGE      0.000    0.753     0  02:25           0         4.8      17.476
  T3                   STORAGE      0.000    0.991     0  02:21           0        6.16      28.277
  T2                   STORAGE      0.000    0.537     0  02:19           0        2.63      51.263
  T1                   STORAGE      0.000    1.106     0  02:22           0        8.68       7.945
  
  
  **********************
  Node Surcharge Summary
  **********************
  
  Surcharging occurs when water rises above the top of the highest conduit.
  ---------------------------------------------------------------------
                                               Max. Height   Min. Depth
                                   Hours       Above Crown    Below Rim
  Node                 Type      Surcharged         Meters       Meters
  ---------------------------------------------------------------------
  CSO7                 JUNCTION        1.04          0.945        0.000
  CSO9                 JUNCTION        1.06          1.682        0.000
  CSO8                 JUNCTION        1.03          1.547        0.000
  CSO10                JUNCTION        0.70          0.560        0.000
  J4                   JUNCTION        1.01          0.992        0.708
  
  
  *********************
  Node Flooding Summary
  *********************
  
  Flooding refers to all water that overflows a node, whether it ponds or not.
  --------------------------------------------------------------------------
                                                             Total   Maximum
                                 Maximum   Time of Max       Flood    Ponded
                        Hours       Rate    Occurrence      Volume     Depth
  Node                 Flooded       CMS   days hr:min    10^6 ltr    Meters
  --------------------------------------------------------------------------
  CSO7                    0.84     0.031      0  02:23       0.055     0.000
  CSO9                    0.41     0.023      0  02:21       0.021     0.000
  CSO8                    0.45     0.132      0  02:20       0.129     0.000
  CSO10                   0.47     0.060      0  02:20       0.060     0.000
  T5                      1.22     0.244      0  02:37       0.392     0.000
  T4                      1.57     0.102      0  03:11       0.128     0.000
  T6                      2.60     0.676      0  02:27       1.910     0.000
  T3                      0.30     0.185      0  05:16       0.064     0.000
  T2                      1.14     0.145      0  03:08       0.134     0.000
  T1                      1.30     0.835      0  02:22       1.894     0.000
  
  
  **********************
  Storage Volume Summary
  **********************
  
  --------------------------------------------------------------------------------------------------
                         Average     Avg  Evap Exfil       Maximum     Max    Time of Max    Maximum
                          Volume    Pcnt  Pcnt  Pcnt        Volume    Pcnt     Occurrence    Outflow
  Storage Unit           1000 m3    Full  Loss  Loss       1000 m3    Full    days hr:min        CMS
  --------------------------------------------------------------------------------------------------
  T5                       0.349      70     0     0         0.500     100       0  02:37      0.039
  T4                       0.343      69     0     0         0.500     100       0  03:11      0.028
  T6                       0.434      72     0     0         0.600     100       0  02:27      0.075
  T3                       1.781      68     0     0         2.600     100       0  05:16      0.259
  T2                       0.700      70     0     0         1.000     100       0  03:08      0.033
  T1                       0.461      66     0     0         0.700     100       0  02:22      0.271
  
  
  ***********************
  Outfall Loading Summary
  ***********************
  
  -----------------------------------------------------------
                         Flow       Avg       Max       Total
                         Freq      Flow      Flow      Volume
  Outfall Node           Pcnt       CMS       CMS    10^6 ltr
  -----------------------------------------------------------
  Out_to_WWTP           99.01     0.201     0.271       5.605
  -----------------------------------------------------------
  System                99.01     0.201     0.271       5.605
  
  
  ********************
  Link Flow Summary
  ********************
  
  -----------------------------------------------------------------------------
                                 Maximum  Time of Max   Maximum    Max/    Max/
                                  |Flow|   Occurrence   |Veloc|    Full    Full
  Link                 Type          CMS  days hr:min     m/sec    Flow   Depth
  -----------------------------------------------------------------------------
  C1                   CONDUIT     0.039     0  03:25      1.09    0.01    0.11
  C6                   CONDUIT     0.071     0  02:23      1.29    1.13    0.76
  C2                   CONDUIT     0.028     0  04:11      1.01    0.03    0.17
  C9                   CONDUIT     0.127     0  02:36      1.29    0.43    0.51
  C16                  CONDUIT     0.488     0  02:16      1.78    0.05    0.15
  C3                   CONDUIT     0.124     0  05:52      1.81    0.05    0.14
  C19                  CONDUIT     0.033     0  04:02      0.67    0.01    0.21
  C11                  CONDUIT     0.189     0  06:01      1.76    0.01    0.12
  C20                  CONDUIT     0.785     0  02:19      2.92    0.02    0.14
  C22                  CONDUIT     0.202     0  02:38      1.58    0.09    0.32
  C12                  CONDUIT     0.075     0  04:04      0.59    0.01    0.28
  C17                  CONDUIT     0.939     0  02:18      3.06    0.05    0.27
  C10                  CONDUIT     0.753     0  02:25      1.66    0.08    0.59
  C13                  CONDUIT     0.991     0  02:21      1.45    0.06    0.75
  C18                  CONDUIT     0.537     0  02:19      1.72    0.02    0.55
  C23                  CONDUIT     1.106     0  02:22      1.24    0.12    0.62
  C4                   CONDUIT     0.377     0  02:19      1.98    0.09    0.60
  C7                   CONDUIT     0.209     0  02:23      1.43    0.05    0.58
  C14                  CONDUIT     0.271     0  02:23      2.08    0.02    0.09
  C5                   CONDUIT     0.074     0  02:08      1.45    1.27    1.00
  C8                   CONDUIT     0.127     0  02:36      1.76    1.60    0.86
  C15                  CONDUIT     0.486     0  02:37      3.43    1.55    0.83
  C21                  CONDUIT     0.202     0  02:38      1.83    1.16    0.69
  V4                   ORIFICE     0.028     0  03:20                      0.35
  V5                   ORIFICE     0.039     0  02:37                      1.00
  V1                   ORIFICE     0.271     0  02:22                      1.00
  V6                   ORIFICE     0.075     0  02:28                      0.43
  V3                   ORIFICE     0.124     0  05:50                      0.65
  V2                   ORIFICE     0.033     0  03:08                      0.24
  
  
  ***************************
  Flow Classification Summary
  ***************************
  
  -------------------------------------------------------------------------------------
                      Adjusted    ---------- Fraction of Time in Flow Class ---------- 
                       /Actual         Up    Down  Sub   Sup   Up    Down  Norm  Inlet 
  Conduit               Length    Dry  Dry   Dry   Crit  Crit  Crit  Crit  Ltd   Ctrl  
  -------------------------------------------------------------------------------------
  C1                      1.00   0.00  0.00  0.00  0.18  0.82  0.00  0.00  0.94  0.00
  C6                      1.00   0.00  0.00  0.00  0.15  0.85  0.00  0.00  0.00  0.00
  C2                      1.00   0.00  0.00  0.00  0.39  0.61  0.00  0.00  0.95  0.00
  C9                      1.00   0.00  0.00  0.00  1.00  0.00  0.00  0.00  1.00  0.00
  C16                     1.00   0.00  0.00  0.00  0.57  0.43  0.00  0.00  0.46  0.00
  C3                      1.00   0.00  0.00  0.00  0.05  0.95  0.00  0.00  0.58  0.00
  C19                     1.00   0.00  0.00  0.00  1.00  0.00  0.00  0.00  1.00  0.00
  C11                     1.00   0.00  0.00  0.00  0.34  0.66  0.00  0.00  1.00  0.00
  C20                     1.00   0.00  0.00  0.00  0.55  0.45  0.00  0.00  0.98  0.00
  C22                     1.00   0.00  0.00  0.00  0.74  0.26  0.00  0.00  1.00  0.00
  C12                     1.00   0.00  0.00  0.00  1.00  0.00  0.00  0.00  1.00  0.00
  C17                     1.00   0.00  0.00  0.00  0.61  0.39  0.00  0.00  0.94  0.00
  C10                     1.00   0.00  0.00  0.00  0.96  0.04  0.00  0.00  0.97  0.00
  C13                     1.00   0.00  0.00  0.00  0.88  0.12  0.00  0.00  0.28  0.00
  C18                     1.00   0.00  0.00  0.00  0.94  0.06  0.00  0.00  0.97  0.00
  C23                     1.00   0.00  0.00  0.00  0.87  0.13  0.00  0.00  0.94  0.00
  C4                      1.00   0.00  0.00  0.00  0.96  0.04  0.00  0.00  0.98  0.00
  C7                      1.00   0.00  0.00  0.00  0.94  0.06  0.00  0.00  0.97  0.00
  C14                     1.00   0.00  0.00  0.00  0.00  0.99  0.00  0.00  0.17  0.00
  C5                      1.00   0.00  0.00  0.00  0.90  0.10  0.00  0.00  0.85  0.00
  C8                      1.00   0.00  0.00  0.00  0.16  0.84  0.00  0.00  0.00  0.00
  C15                     1.00   0.00  0.00  0.00  0.00  1.00  0.00  0.00  0.00  0.00
  C21                     1.00   0.00  0.00  0.00  0.01  0.99  0.00  0.00  0.00  0.00
  
  
  *************************
  Conduit Surcharge Summary
  *************************
  
  ----------------------------------------------------------------------------
                                                           Hours        Hours 
                         --------- Hours Full --------   Above Full   Capacity
  Conduit                Both Ends  Upstream  Dnstream   Normal Flow   Limited
  ----------------------------------------------------------------------------
  C6                          0.01      1.01      0.01      0.91         0.01
  C10                         0.01      0.01      5.89      0.01         0.01
  C13                         0.01      0.01      5.52      0.01         0.01
  C18                         0.01      0.01      5.59      0.01         0.01
  C23                         0.01      0.01      5.96      0.01         0.01
  C4                          0.01      0.01      6.08      0.01         0.01
  C7                          0.01      0.01      5.84      0.01         0.01
  C5                          1.03      1.04      1.13      1.09         1.00
  C8                          0.01      1.06      0.01      1.07         0.01
  C15                         0.01      1.03      0.01      1.10         0.01
  C21                         0.01      0.70      0.01      0.66         0.01
  

  Analysis begun on:  Fri Sep  3 19:36:30 2021
  Analysis ended on:  Fri Sep  3 19:36:31 2021
  Total elapsed time: 00:00:01