
  EPA STORM WATER MANAGEMENT MODEL - VERSION 5.1 (Build 5.3.0.dev0)
  --------------------------------------------------------------

  
  *********************************************************
  NOTE: The summary statistics displayed in this report are
  based on results found at every computational time step,  
  not just on results from each reporting time step.
  *********************************************************
  
  ****************
  Analysis Options
  ****************
  Flow Units ............... CMS
  Process Models:
    Rainfall/Runoff ........ YES
    RDII ................... NO
    Snowmelt ............... NO
    Groundwater ............ NO
    Flow Routing ........... YES
    Ponding Allowed ........ YES
    Water Quality .......... NO
  Infiltration Method ...... HORTON
  Flow Routing Method ...... DYNWAVE
  Surcharge Method ......... EXTRAN
  Starting Date ............ 08/28/2015 08:00:00
  Ending Date .............. 08/28/2015 12:00:00
  Antecedent Dry Days ...... 0.0
  Report Time Step ......... 00:01:00
  Wet Time Step ............ 00:01:00
  Dry Time Step ............ 00:01:00
  Routing Time Step ........ 5.00 sec
  Variable Time Step ....... YES
  Maximum Trials ........... 8
  Number of Threads ........ 1
  Head Tolerance ........... 0.001500 m
  
  
  **************************        Volume         Depth
  Runoff Quantity Continuity     hectare-m            mm
  **************************     ---------       -------
  Total Precipitation ......         1.378         7.645
  Evaporation Loss .........         0.000         0.000
  Infiltration Loss ........         0.000         0.000
  Surface Runoff ...........         1.259         6.984
  Final Storage ............         0.120         0.667
  Continuity Error (%) .....        -0.077
  
  
  **************************        Volume        Volume
  Flow Routing Continuity        hectare-m      10^6 ltr
  **************************     ---------     ---------
  Dry Weather Inflow .......         0.182         1.818
  Wet Weather Inflow .......         1.256        12.564
  Groundwater Inflow .......         0.000         0.000
  RDII Inflow ..............         0.000         0.000
  External Inflow ..........         0.000         0.000
  External Outflow .........         0.178         1.780
  Flooding Loss ............         0.229         2.287
  Evaporation Loss .........         0.000         0.000
  Exfiltration Loss ........         0.000         0.000
  Initial Stored Volume ....         0.000         0.000
  Final Stored Volume ......         0.753         7.535
  Continuity Error (%) .....        19.326
  
  
  *************************
  Highest Continuity Errors
  *************************
  Node T2 (44.50%)
  Node T5 (35.99%)
  Node T4 (35.68%)
  Node T3 (31.42%)
  Node T6 (28.11%)
  
  
  ***************************
  Time-Step Critical Elements
  ***************************
  None
  
  
  ********************************
  Highest Flow Instability Indexes
  ********************************
  All links are stable.
  
  
  *************************
  Routing Time Step Summary
  *************************
  Minimum Time Step           :     5.00 sec
  Average Time Step           :     5.00 sec
  Maximum Time Step           :     5.00 sec
  Percent in Steady State     :     0.00
  Average Iterations per Step :     2.39
  Percent Not Converging      :     1.11
  
  
  ***************************
  Subcatchment Runoff Summary
  ***************************
  
  ------------------------------------------------------------------------------------------------------------------------------
                            Total      Total      Total      Total     Imperv       Perv      Total       Total     Peak  Runoff
                           Precip      Runon       Evap      Infil     Runoff     Runoff     Runoff      Runoff   Runoff   Coeff
  Subcatchment                 mm         mm         mm         mm         mm         mm         mm    10^6 ltr      CMS
  ------------------------------------------------------------------------------------------------------------------------------
  SC01                       7.65       0.00       0.00       0.00       7.25       0.00       7.25        2.39     0.65   0.949
  SC02                       7.65       0.00       0.00       0.00       7.21       0.00       7.21        1.64     0.44   0.943
  SC03                       7.65       0.00       0.00       0.00       7.40       0.00       7.40        1.33     0.37   0.967
  SC04                       7.65       0.00       0.00       0.00       6.58       0.00       6.58        0.45     0.11   0.860
  SC05                       7.65       0.00       0.00       0.00       7.21       0.00       7.21        1.12     0.30   0.943
  SC06                       7.65       0.00       0.00       0.00       6.32       0.00       6.32        2.06     0.51   0.826
  SC07                       7.65       0.00       0.00       0.00       6.58       0.00       6.58        0.31     0.08   0.861
  SC08                       7.65       0.00       0.00       0.00       7.03       0.00       7.03        1.97     0.51   0.920
  SC09                       7.65       0.00       0.00       0.00       6.87       0.00       6.87        0.47     0.12   0.899
  SC010                      7.65       0.00       0.00       0.00       7.06       0.00       7.06        0.83     0.22   0.923
  
  
  ******************
  Node Depth Summary
  ******************
  
  ---------------------------------------------------------------------------------
                                 Average  Maximum  Maximum  Time of Max    Reported
                                   Depth    Depth      HGL   Occurrence   Max Depth
  Node                 Type       Meters   Meters   Meters  days hr:min      Meters
  ---------------------------------------------------------------------------------
  J1                   JUNCTION     0.10     0.19    34.19     0  02:43        0.19
  J3                   JUNCTION     0.07     0.11    18.11     0  03:44        0.11
  CSO7                 JUNCTION     0.27     1.20    35.20     0  02:36        1.20
  J5                   JUNCTION     0.08     0.15    32.15     0  02:48        0.15
  CSO9                 JUNCTION     0.35     2.00    42.00     0  02:41        2.00
  J8                   JUNCTION     0.14     0.27    36.27     0  02:50        0.27
  CSO8                 JUNCTION     0.40     2.00    34.00     0  02:38        2.00
  J10                  JUNCTION     0.14     0.28    29.28     0  02:44        0.28
  J13                  JUNCTION     0.09     0.18    29.18     0  02:43        0.18
  J15                  JUNCTION     0.17     0.34    15.34     0  02:47        0.34
  J16                  JUNCTION     0.10     0.20    30.20     0  02:43        0.20
  CSO10                JUNCTION     0.24     1.00    31.00     0  02:36        1.00
  J12                  JUNCTION     0.17     0.31    26.31     0  03:43        0.31
  J4                   JUNCTION     0.22     1.28    34.28     0  02:36        0.76
  J6                   JUNCTION     0.04     0.07    25.07     0  03:44        0.07
  J2                   JUNCTION     0.05     0.08    25.08     0  03:44        0.08
  J19                  JUNCTION     0.11     0.17     8.17     0  02:48        0.17
  J9                   JUNCTION     0.07     0.11    29.11     0  03:40        0.11
  J14                  JUNCTION     0.07     0.12    20.12     0  02:40        0.12
  J17                  JUNCTION     0.04     0.07    20.07     0  03:44        0.07
  J7                   JUNCTION     0.11     0.23    39.23     0  02:49        0.23
  J11                  JUNCTION     0.14     0.30    31.30     0  02:53        0.30
  J18                  JUNCTION     0.08     0.16    29.16     0  02:53        0.16
  Out_to_WWTP          OUTFALL      0.11     0.17     6.17     0  02:47        0.17
  T5                   STORAGE      1.85     5.00    32.00     0  03:05        5.00
  T4                   STORAGE      1.39     4.47    31.47     0  03:44        4.47
  T6                   STORAGE      2.00     5.00    36.00     0  02:49        5.00
  T3                   STORAGE      1.32     4.30    26.30     0  03:44        4.29
  T2                   STORAGE      1.45     4.30    25.30     0  03:44        4.30
  T1                   STORAGE      1.98     5.00    15.00     0  02:46        5.00
  
  
  *******************
  Node Inflow Summary
  *******************
  
  -------------------------------------------------------------------------------------------------
                                  Maximum  Maximum                  Lateral       Total        Flow
                                  Lateral    Total  Time of Max      Inflow      Inflow     Balance
                                   Inflow   Inflow   Occurrence      Volume      Volume       Error
  Node                 Type           CMS      CMS  days hr:min    10^6 ltr    10^6 ltr     Percent
  -------------------------------------------------------------------------------------------------
  J1                   JUNCTION     0.322    0.322     0  02:43        1.38        1.38       0.252
  J3                   JUNCTION     0.000    0.123     0  02:41           0       0.795       3.696
  CSO7                 JUNCTION     0.089    0.089     0  02:47       0.445       0.445       0.252
  J5                   JUNCTION     0.118    0.189     0  02:47       0.511       0.924       0.728
  CSO9                 JUNCTION     0.129    0.129     0  02:45       0.563       0.563       0.233
  J8                   JUNCTION     0.541    0.668     0  02:49        2.48        3.03       0.856
  CSO8                 JUNCTION     0.525    0.525     0  02:44        2.11        2.11       0.091
  J10                  JUNCTION     0.387    0.871     0  02:42        1.51        3.57       0.546
  J13                  JUNCTION     0.457    0.457     0  02:43        1.85        1.85       0.088
  J15                  JUNCTION     0.000    1.008     0  02:43           0        4.44       2.102
  J16                  JUNCTION     0.668    0.668     0  02:43        2.65        2.65       0.182
  CSO10                JUNCTION     0.223    0.223     0  02:44       0.892       0.892       0.175
  J12                  JUNCTION     0.000    0.904     0  02:44           0        4.01       4.271
  J4                   JUNCTION     0.000    0.074     0  02:36           0       0.421       1.934
  J6                   JUNCTION     0.000    0.027     0  03:44           0       0.143       2.862
  J2                   JUNCTION     0.000    0.039     0  03:05           0       0.267       2.110
  J19                  JUNCTION     0.000    0.271     0  02:46           0        1.79       0.709
  J9                   JUNCTION     0.000    0.075     0  02:50           0       0.475       3.698
  J14                  JUNCTION     0.000    0.077     0  02:40           0       0.399       1.048
  J17                  JUNCTION     0.000    0.031     0  03:44           0       0.167       3.963
  J7                   JUNCTION     0.000    0.127     0  02:48           0       0.561       1.553
  J11                  JUNCTION     0.000    0.486     0  02:52           0        2.08       1.008
  J18                  JUNCTION     0.000    0.202     0  02:53           0       0.878       0.660
  Out_to_WWTP          OUTFALL      0.000    0.271     0  02:48           0        1.78       0.000
  T5                   STORAGE      0.000    0.321     0  02:43           0        1.38      56.229
  T4                   STORAGE      0.000    0.189     0  02:48           0       0.918      55.475
  T6                   STORAGE      0.000    0.667     0  02:50           0        3.01      39.107
  T3                   STORAGE      0.000    0.898     0  02:48           0        3.84      45.806
  T2                   STORAGE      0.000    0.457     0  02:43           0        1.85      80.176
  T1                   STORAGE      0.000    0.991     0  02:47           0        4.35      23.483
  
  
  **********************
  Node Surcharge Summary
  **********************
  
  Surcharging occurs when water rises above the top of the highest conduit.
  ---------------------------------------------------------------------
                                               Max. Height   Min. Depth
                                   Hours       Above Crown    Below Rim
  Node                 Type      Surcharged         Meters       Meters
  ---------------------------------------------------------------------
  CSO7                 JUNCTION        0.64          0.945        0.000
  CSO9                 JUNCTION        0.65          1.682        0.000
  CSO8                 JUNCTION        0.61          1.547        0.000
  CSO10                JUNCTION        0.44          0.560        0.000
  J4                   JUNCTION        0.61          0.980        0.720
  
  
  *********************
  Node Flooding Summary
  *********************
  
  Flooding refers to all water that overflows a node, whether it ponds or not.
  --------------------------------------------------------------------------
                                                             Total   Maximum
                                 Maximum   Time of Max       Flood    Ponded
                        Hours       Rate    Occurrence      Volume     Depth
  Node                 Flooded       CMS   days hr:min    10^6 ltr    Meters
  --------------------------------------------------------------------------
  CSO7                    0.47     0.018      0  02:47       0.023     0.000
  CSO9                    0.12     0.002      0  02:45       0.001     0.000
  CSO8                    0.24     0.039      0  02:44       0.022     0.000
  CSO10                   0.27     0.020      0  02:44       0.012     0.000
  T5                      0.66     0.155      0  03:05       0.114     0.000
  T6                      0.92     0.594      0  02:49       1.087     0.000
  T1                      0.91     0.720      0  02:47       1.029     0.000
  
  
  **********************
  Storage Volume Summary
  **********************
  
  --------------------------------------------------------------------------------------------------
                         Average     Avg  Evap Exfil       Maximum     Max    Time of Max    Maximum
                          Volume    Pcnt  Pcnt  Pcnt        Volume    Pcnt     Occurrence    Outflow
  Storage Unit           1000 m3    Full  Loss  Loss       1000 m3    Full    days hr:min        CMS
  --------------------------------------------------------------------------------------------------
  T5                       0.185      37     0     0         0.500     100       0  03:05      0.039
  T4                       0.139      28     0     0         0.447      89       0  03:44      0.027
  T6                       0.240      40     0     0         0.600     100       0  02:49      0.075
  T3                       0.688      26     0     0         2.237      86       0  03:44      0.077
  T2                       0.289      29     0     0         0.861      86       0  03:44      0.031
  T1                       0.277      40     0     0         0.700     100       0  02:46      0.271
  
  
  ***********************
  Outfall Loading Summary
  ***********************
  
  -----------------------------------------------------------
                         Flow       Avg       Max       Total
                         Freq      Flow      Flow      Volume
  Outfall Node           Pcnt       CMS       CMS    10^6 ltr
  -----------------------------------------------------------
  Out_to_WWTP           97.92     0.135     0.271       1.780
  -----------------------------------------------------------
  System                97.92     0.135     0.271       1.780
  
  
  ********************
  Link Flow Summary
  ********************
  
  -----------------------------------------------------------------------------
                                 Maximum  Time of Max   Maximum    Max/    Max/
                                  |Flow|   Occurrence   |Veloc|    Full    Full
  Link                 Type          CMS  days hr:min     m/sec    Flow   Depth
  -----------------------------------------------------------------------------
  C1                   CONDUIT     0.039     0  03:44      1.11    0.01    0.09
  C6                   CONDUIT     0.071     0  02:48      1.29    1.13    0.74
  C2                   CONDUIT     0.026     0  03:44      0.98    0.03    0.15
  C9                   CONDUIT     0.127     0  02:49      1.30    0.43    0.50
  C16                  CONDUIT     0.486     0  02:44      1.77    0.05    0.14
  C3                   CONDUIT     0.075     0  02:41      1.54    0.03    0.11
  C19                  CONDUIT     0.031     0  03:44      0.55    0.01    0.20
  C11                  CONDUIT     0.121     0  03:44      1.22    0.01    0.11
  C20                  CONDUIT     0.667     0  02:43      2.74    0.02    0.13
  C22                  CONDUIT     0.202     0  02:53      1.59    0.09    0.31
  C12                  CONDUIT     0.075     0  03:40      0.73    0.01    0.10
  C17                  CONDUIT     0.867     0  02:44      3.02    0.04    0.15
  C10                  CONDUIT     0.667     0  02:50      1.66    0.07    0.59
  C13                  CONDUIT     0.898     0  02:48      1.42    0.05    0.58
  C18                  CONDUIT     0.457     0  02:43      1.72    0.02    0.55
  C23                  CONDUIT     0.991     0  02:47      1.24    0.11    0.61
  C4                   CONDUIT     0.321     0  02:43      1.98    0.08    0.59
  C7                   CONDUIT     0.189     0  02:48      1.43    0.05    0.57
  C14                  CONDUIT     0.271     0  02:48      2.08    0.02    0.09
  C5                   CONDUIT     0.074     0  02:36      1.44    1.26    1.00
  C8                   CONDUIT     0.127     0  02:48      1.75    1.60    0.86
  C15                  CONDUIT     0.486     0  02:52      3.43    1.55    0.83
  C21                  CONDUIT     0.202     0  02:53      1.83    1.16    0.69
  V4                   ORIFICE     0.027     0  03:44                      0.35
  V5                   ORIFICE     0.039     0  03:05                      1.00
  V1                   ORIFICE     0.271     0  02:46                      1.00
  V6                   ORIFICE     0.075     0  02:50                      0.43
  V3                   ORIFICE     0.077     0  02:40                      0.65
  V2                   ORIFICE     0.031     0  03:44                      0.24
  
  
  ***************************
  Flow Classification Summary
  ***************************
  
  -------------------------------------------------------------------------------------
                      Adjusted    ---------- Fraction of Time in Flow Class ---------- 
                       /Actual         Up    Down  Sub   Sup   Up    Down  Norm  Inlet 
  Conduit               Length    Dry  Dry   Dry   Crit  Crit  Crit  Crit  Ltd   Ctrl  
  -------------------------------------------------------------------------------------
  C1                      1.00   0.00  0.00  0.00  0.00  0.99  0.00  0.00  0.86  0.00
  C6                      1.00   0.00  0.00  0.00  0.22  0.78  0.00  0.00  0.01  0.00
  C2                      1.00   0.00  0.00  0.00  0.41  0.58  0.00  0.00  0.93  0.00
  C9                      1.00   0.00  0.00  0.00  1.00  0.00  0.00  0.00  1.00  0.00
  C16                     1.00   0.00  0.00  0.00  0.38  0.61  0.00  0.00  0.38  0.00
  C3                      1.00   0.00  0.01  0.00  0.10  0.89  0.00  0.00  0.65  0.00
  C19                     1.00   0.00  0.00  0.00  1.00  0.00  0.00  0.00  1.00  0.00
  C11                     1.00   0.00  0.00  0.00  0.72  0.27  0.00  0.00  1.00  0.00
  C20                     1.00   0.00  0.00  0.00  0.02  0.98  0.00  0.00  0.96  0.00
  C22                     1.00   0.00  0.00  0.00  0.47  0.53  0.00  0.00  1.00  0.00
  C12                     1.00   0.00  0.00  0.00  1.00  0.00  0.00  0.00  1.00  0.00
  C17                     1.00   0.00  0.00  0.00  0.06  0.94  0.00  0.00  0.93  0.00
  C10                     1.00   0.00  0.00  0.00  0.92  0.08  0.00  0.00  0.95  0.00
  C13                     1.00   0.00  0.00  0.00  0.69  0.31  0.00  0.00  0.71  0.00
  C18                     1.00   0.00  0.00  0.00  0.88  0.12  0.00  0.00  0.94  0.00
  C23                     1.00   0.00  0.00  0.00  0.74  0.26  0.00  0.00  0.88  0.00
  C4                      1.00   0.00  0.00  0.00  0.91  0.09  0.00  0.00  0.96  0.00
  C7                      1.00   0.00  0.00  0.00  0.89  0.11  0.00  0.00  0.93  0.00
  C14                     1.00   0.01  0.00  0.00  0.01  0.98  0.00  0.00  0.00  0.00
  C5                      1.00   0.00  0.00  0.00  0.77  0.23  0.00  0.00  0.78  0.00
  C8                      1.00   0.00  0.00  0.00  0.25  0.75  0.00  0.00  0.00  0.00
  C15                     1.00   0.00  0.00  0.00  0.00  1.00  0.00  0.00  0.00  0.00
  C21                     1.00   0.00  0.00  0.00  0.01  0.99  0.00  0.00  0.00  0.00
  
  
  *************************
  Conduit Surcharge Summary
  *************************
  
  ----------------------------------------------------------------------------
                                                           Hours        Hours 
                         --------- Hours Full --------   Above Full   Capacity
  Conduit                Both Ends  Upstream  Dnstream   Normal Flow   Limited
  ----------------------------------------------------------------------------
  C6                          0.01      0.61      0.01      0.52         0.01
  C10                         0.01      0.01      1.59      0.01         0.01
  C13                         0.01      0.01      1.06      0.01         0.01
  C18                         0.01      0.01      1.15      0.01         0.01
  C23                         0.01      0.01      1.62      0.01         0.01
  C4                          0.01      0.01      1.79      0.01         0.01
  C7                          0.01      0.01      1.53      0.01         0.01
  C5                          0.63      0.64      0.73      0.69         0.61
  C8                          0.01      0.65      0.01      0.68         0.01
  C15                         0.01      0.61      0.01      0.68         0.01
  C21                         0.01      0.44      0.01      0.44         0.01
  

  Analysis begun on:  Wed Sep  1 17:07:41 2021
  Analysis ended on:  Wed Sep  1 17:07:42 2021
  Total elapsed time: 00:00:01