
  EPA STORM WATER MANAGEMENT MODEL - VERSION 5.1 (Build 5.3.0.dev0)
  --------------------------------------------------------------

  
  *********************************************************
  NOTE: The summary statistics displayed in this report are
  based on results found at every computational time step,  
  not just on results from each reporting time step.
  *********************************************************
  
  ****************
  Analysis Options
  ****************
  Flow Units ............... CMS
  Process Models:
    Rainfall/Runoff ........ YES
    RDII ................... NO
    Snowmelt ............... NO
    Groundwater ............ NO
    Flow Routing ........... YES
    Ponding Allowed ........ YES
    Water Quality .......... NO
  Infiltration Method ...... HORTON
  Flow Routing Method ...... DYNWAVE
  Surcharge Method ......... EXTRAN
  Starting Date ............ 08/28/2015 08:00:00
  Ending Date .............. 08/28/2015 15:50:00
  Antecedent Dry Days ...... 0.0
  Report Time Step ......... 00:01:00
  Wet Time Step ............ 00:01:00
  Dry Time Step ............ 00:01:00
  Routing Time Step ........ 5.00 sec
  Variable Time Step ....... YES
  Maximum Trials ........... 8
  Number of Threads ........ 1
  Head Tolerance ........... 0.001500 m
  
  
  **************************        Volume         Depth
  Runoff Quantity Continuity     hectare-m            mm
  **************************     ---------       -------
  Total Precipitation ......         1.033         5.735
  Evaporation Loss .........         0.000         0.000
  Infiltration Loss ........         0.000         0.000
  Surface Runoff ...........         1.010         5.607
  Final Storage ............         0.023         0.128
  Continuity Error (%) .....        -0.007
  
  
  **************************        Volume        Volume
  Flow Routing Continuity        hectare-m      10^6 ltr
  **************************     ---------     ---------
  Dry Weather Inflow .......         0.396         3.955
  Wet Weather Inflow .......         1.010        10.103
  Groundwater Inflow .......         0.000         0.000
  RDII Inflow ..............         0.000         0.000
  External Inflow ..........         0.000         0.000
  External Outflow .........         0.505         5.055
  Flooding Loss ............         0.116         1.162
  Evaporation Loss .........         0.000         0.000
  Exfiltration Loss ........         0.000         0.000
  Initial Stored Volume ....         0.000         0.000
  Final Stored Volume ......         0.608         6.076
  Continuity Error (%) .....        12.555
  
  
  *************************
  Highest Continuity Errors
  *************************
  Node T2 (34.84%)
  Node T5 (34.49%)
  Node T4 (23.94%)
  Node T6 (21.59%)
  Node T3 (20.82%)
  
  
  ***************************
  Time-Step Critical Elements
  ***************************
  None
  
  
  ********************************
  Highest Flow Instability Indexes
  ********************************
  All links are stable.
  
  
  *************************
  Routing Time Step Summary
  *************************
  Minimum Time Step           :     4.50 sec
  Average Time Step           :     5.00 sec
  Maximum Time Step           :     5.00 sec
  Percent in Steady State     :     0.00
  Average Iterations per Step :     2.00
  Percent Not Converging      :     0.00
  
  
  ***************************
  Subcatchment Runoff Summary
  ***************************
  
  ------------------------------------------------------------------------------------------------------------------------------
                            Total      Total      Total      Total     Imperv       Perv      Total       Total     Peak  Runoff
                           Precip      Runon       Evap      Infil     Runoff     Runoff     Runoff      Runoff   Runoff   Coeff
  Subcatchment                 mm         mm         mm         mm         mm         mm         mm    10^6 ltr      CMS
  ------------------------------------------------------------------------------------------------------------------------------
  SC01                       5.73       0.00       0.00       0.00       5.65       0.00       5.65        1.86     0.37   0.985
  SC02                       5.73       0.00       0.00       0.00       5.64       0.00       5.64        1.28     0.25   0.984
  SC03                       5.73       0.00       0.00       0.00       5.67       0.00       5.67        1.02     0.21   0.988
  SC04                       5.73       0.00       0.00       0.00       5.55       0.00       5.55        0.38     0.07   0.967
  SC05                       5.73       0.00       0.00       0.00       5.64       0.00       5.64        0.88     0.17   0.984
  SC06                       5.73       0.00       0.00       0.00       5.50       0.00       5.50        1.79     0.32   0.958
  SC07                       5.73       0.00       0.00       0.00       5.55       0.00       5.55        0.26     0.05   0.967
  SC08                       5.73       0.00       0.00       0.00       5.62       0.00       5.62        1.57     0.30   0.980
  SC09                       5.73       0.00       0.00       0.00       5.60       0.00       5.60        0.39     0.07   0.976
  SC010                      5.73       0.00       0.00       0.00       5.62       0.00       5.62        0.66     0.13   0.981
  
  
  ******************
  Node Depth Summary
  ******************
  
  ---------------------------------------------------------------------------------
                                 Average  Maximum  Maximum  Time of Max    Reported
                                   Depth    Depth      HGL   Occurrence   Max Depth
  Node                 Type       Meters   Meters   Meters  days hr:min      Meters
  ---------------------------------------------------------------------------------
  J1                   JUNCTION     0.07     0.15    34.15     0  03:01        0.15
  J3                   JUNCTION     0.08     0.11    18.11     0  06:02        0.11
  CSO7                 JUNCTION     0.10     0.21    34.21     0  03:01        0.21
  J5                   JUNCTION     0.06     0.12    32.12     0  03:01        0.12
  CSO9                 JUNCTION     0.11     0.30    40.30     0  03:01        0.30
  J8                   JUNCTION     0.11     0.21    36.21     0  03:01        0.21
  CSO8                 JUNCTION     0.13     0.39    32.39     0  03:01        0.39
  J10                  JUNCTION     0.09     0.22    29.22     0  03:01        0.22
  J13                  JUNCTION     0.06     0.14    29.14     0  03:01        0.14
  J15                  JUNCTION     0.15     0.27    15.27     0  03:02        0.27
  J16                  JUNCTION     0.07     0.15    30.15     0  03:01        0.15
  CSO10                JUNCTION     0.11     0.31    30.31     0  03:01        0.31
  J12                  JUNCTION     0.13     0.25    26.25     0  03:02        0.25
  J4                   JUNCTION     0.12     0.25    33.25     0  03:02        0.25
  J6                   JUNCTION     0.05     0.07    25.07     0  05:06        0.07
  J2                   JUNCTION     0.00     0.00    25.00     0  00:00        0.00
  J19                  JUNCTION     0.13     0.17     8.17     0  03:15        0.17
  J9                   JUNCTION     0.08     0.11    29.11     0  04:16        0.11
  J14                  JUNCTION     0.10     0.14    20.14     0  06:19        0.14
  J17                  JUNCTION     0.05     0.07    20.07     0  04:51        0.07
  J7                   JUNCTION     0.08     0.18    39.18     0  03:02        0.18
  J11                  JUNCTION     0.10     0.24    31.24     0  03:01        0.24
  J18                  JUNCTION     0.05     0.13    29.13     0  03:01        0.13
  Out_to_WWTP          OUTFALL      0.13     0.17     6.17     0  03:46        0.17
  T5                   STORAGE      3.53     5.00    32.00     0  03:19        5.00
  T4                   STORAGE      2.54     3.83    30.83     0  05:04        3.83
  T6                   STORAGE      3.51     5.00    36.00     0  03:00        5.00
  T3                   STORAGE      2.27     3.44    25.44     0  06:12        3.44
  T2                   STORAGE      2.30     3.36    24.36     0  04:49        3.36
  T1                   STORAGE      2.80     5.00    15.00     0  03:14        5.00
  
  
  *******************
  Node Inflow Summary
  *******************
  
  -------------------------------------------------------------------------------------------------
                                  Maximum  Maximum                  Lateral       Total        Flow
                                  Lateral    Total  Time of Max      Inflow      Inflow     Balance
                                   Inflow   Inflow   Occurrence      Volume      Volume       Error
  Node                 Type           CMS      CMS  days hr:min    10^6 ltr    10^6 ltr     Percent
  -------------------------------------------------------------------------------------------------
  J1                   JUNCTION     0.197    0.197     0  03:01        1.44        1.44       0.058
  J3                   JUNCTION     0.000    0.127     0  06:00           0        2.39       1.253
  CSO7                 JUNCTION     0.060    0.060     0  03:01       0.554       0.554       0.085
  J5                   JUNCTION     0.075    0.132     0  03:01        0.51        1.06       0.165
  CSO9                 JUNCTION     0.081    0.081     0  03:01       0.582       0.582       0.076
  J8                   JUNCTION     0.356    0.433     0  03:01        2.73        3.31       0.183
  CSO8                 JUNCTION     0.314    0.314     0  03:01        1.87        1.87       0.029
  J10                  JUNCTION     0.223    0.528     0  03:01        1.41        3.26       0.156
  J13                  JUNCTION     0.273    0.273     0  03:01        1.75        1.75      -0.174
  J15                  JUNCTION     0.000    0.646     0  03:01           0        6.09       1.090
  J16                  JUNCTION     0.393    0.393     0  03:01        2.42        2.42      -0.006
  CSO10                JUNCTION     0.134    0.134     0  03:01         0.8         0.8       0.053
  J12                  JUNCTION     0.000    0.595     0  03:01           0         4.7       0.470
  J4                   JUNCTION     0.000    0.060     0  03:01           0       0.553       0.678
  J6                   JUNCTION     0.000    0.025     0  05:04           0       0.463       0.730
  J2                   JUNCTION     0.000    0.000     0  00:00           0           0       0.000 ltr
  J19                  JUNCTION     0.000    0.271     0  03:14           0        5.07       0.202
  J9                   JUNCTION     0.000    0.075     0  03:00           0        1.46       1.424
  J14                  JUNCTION     0.000    0.102     0  06:13           0        1.93       0.312
  J17                  JUNCTION     0.000    0.027     0  04:49           0       0.521       1.277
  J7                   JUNCTION     0.000    0.079     0  03:01           0       0.582       0.548
  J11                  JUNCTION     0.000    0.313     0  03:01           0        1.86       0.324
  J18                  JUNCTION     0.000    0.133     0  03:01           0       0.799       0.092
  Out_to_WWTP          OUTFALL      0.000    0.271     0  03:15           0        5.06       0.000
  T5                   STORAGE      0.000    0.195     0  03:01           0        1.44      52.649
  T4                   STORAGE      0.000    0.131     0  03:01           0        1.06      31.475
  T6                   STORAGE      0.000    0.427     0  03:01           0         3.3      27.532
  T3                   STORAGE      0.000    0.585     0  03:03           0        4.67      26.299
  T2                   STORAGE      0.000    0.270     0  03:01           0        1.75      53.466
  T1                   STORAGE      0.000    0.629     0  03:02           0        6.02       8.668
  
  
  **********************
  Node Surcharge Summary
  **********************
  
  No nodes were surcharged.
  
  
  *********************
  Node Flooding Summary
  *********************
  
  Flooding refers to all water that overflows a node, whether it ponds or not.
  --------------------------------------------------------------------------
                                                             Total   Maximum
                                 Maximum   Time of Max       Flood    Ponded
                        Hours       Rate    Occurrence      Volume     Depth
  Node                 Flooded       CMS   days hr:min    10^6 ltr    Meters
  --------------------------------------------------------------------------
  T5                      4.51     0.080      0  03:19       0.444     0.000
  T6                      2.02     0.352      0  03:01       0.630     0.000
  T1                      0.37     0.173      0  03:14       0.088     0.000
  
  
  **********************
  Storage Volume Summary
  **********************
  
  --------------------------------------------------------------------------------------------------
                         Average     Avg  Evap Exfil       Maximum     Max    Time of Max    Maximum
                          Volume    Pcnt  Pcnt  Pcnt        Volume    Pcnt     Occurrence    Outflow
  Storage Unit           1000 m3    Full  Loss  Loss       1000 m3    Full    days hr:min        CMS
  --------------------------------------------------------------------------------------------------
  T5                       0.353      71     0     0         0.500     100       0  03:19      0.000
  T4                       0.254      51     0     0         0.383      77       0  05:04      0.025
  T6                       0.421      70     0     0         0.600     100       0  03:00      0.075
  T3                       1.180      45     0     0         1.787      69       0  06:12      0.102
  T2                       0.459      46     0     0         0.671      67       0  04:49      0.027
  T1                       0.391      56     0     0         0.700     100       0  03:14      0.271
  
  
  ***********************
  Outfall Loading Summary
  ***********************
  
  -----------------------------------------------------------
                         Flow       Avg       Max       Total
                         Freq      Flow      Flow      Volume
  Outfall Node           Pcnt       CMS       CMS    10^6 ltr
  -----------------------------------------------------------
  Out_to_WWTP           99.01     0.181     0.271       5.055
  -----------------------------------------------------------
  System                99.01     0.181     0.271       5.055
  
  
  ********************
  Link Flow Summary
  ********************
  
  -----------------------------------------------------------------------------
                                 Maximum  Time of Max   Maximum    Max/    Max/
                                  |Flow|   Occurrence   |Veloc|    Full    Full
  Link                 Type          CMS  days hr:min     m/sec    Flow   Depth
  -----------------------------------------------------------------------------
  C1                   CONDUIT     0.000     0  00:00      0.00    0.00    0.06
  C6                   CONDUIT     0.057     0  03:03      1.27    0.91    0.62
  C2                   CONDUIT     0.025     0  05:06      0.97    0.03    0.15
  C9                   CONDUIT     0.078     0  03:02      1.11    0.27    0.39
  C16                  CONDUIT     0.308     0  03:02      1.54    0.03    0.11
  C3                   CONDUIT     0.102     0  06:13      1.77    0.04    0.13
  C19                  CONDUIT     0.027     0  04:51      0.60    0.01    0.17
  C11                  CONDUIT     0.127     0  06:02      1.48    0.01    0.09
  C20                  CONDUIT     0.390     0  03:01      2.20    0.01    0.11
  C22                  CONDUIT     0.131     0  03:01      1.34    0.06    0.25
  C12                  CONDUIT     0.075     0  04:16      1.09    0.01    0.09
  C17                  CONDUIT     0.521     0  03:01      2.49    0.03    0.12
  C10                  CONDUIT     0.427     0  03:01      1.65    0.04    0.57
  C13                  CONDUIT     0.585     0  03:03      1.31    0.03    0.56
  C18                  CONDUIT     0.270     0  03:01      1.72    0.01    0.54
  C23                  CONDUIT     0.629     0  03:02      1.25    0.07    0.59
  C4                   CONDUIT     0.195     0  03:01      1.97    0.05    0.57
  C7                   CONDUIT     0.131     0  03:01      1.41    0.03    0.56
  C14                  CONDUIT     0.271     0  03:15      2.08    0.02    0.09
  C5                   CONDUIT     0.060     0  03:01      1.23    1.02    0.90
  C8                   CONDUIT     0.079     0  03:01      1.29    1.00    0.75
  C15                  CONDUIT     0.313     0  03:01      2.65    0.99    0.69
  C21                  CONDUIT     0.133     0  03:01      1.72    0.76    0.51
  V4                   ORIFICE     0.025     0  05:04                      0.35
  V5                   ORIFICE     0.000     0  00:00                      0.00
  V1                   ORIFICE     0.271     0  03:14                      1.00
  V6                   ORIFICE     0.075     0  03:00                      0.43
  V3                   ORIFICE     0.102     0  06:13                      0.65
  V2                   ORIFICE     0.027     0  04:49                      0.24
  
  
  ***************************
  Flow Classification Summary
  ***************************
  
  -------------------------------------------------------------------------------------
                      Adjusted    ---------- Fraction of Time in Flow Class ---------- 
                       /Actual         Up    Down  Sub   Sup   Up    Down  Norm  Inlet 
  Conduit               Length    Dry  Dry   Dry   Crit  Crit  Crit  Crit  Ltd   Ctrl  
  -------------------------------------------------------------------------------------
  C1                      1.00   0.28  0.72  0.00  0.00  0.00  0.00  0.00  0.00  0.00
  C6                      1.00   0.00  0.00  0.00  0.01  0.99  0.00  0.00  0.00  0.00
  C2                      1.00   0.28  0.00  0.00  0.00  0.72  0.00  0.00  0.71  0.00
  C9                      1.00   0.00  0.00  0.00  1.00  0.00  0.00  0.00  1.00  0.00
  C16                     1.00   0.00  0.00  0.00  0.58  0.42  0.00  0.00  0.47  0.00
  C3                      1.00   0.28  0.00  0.00  0.00  0.72  0.00  0.00  0.00  0.00
  C19                     1.00   0.00  0.28  0.00  0.72  0.00  0.00  0.00  0.72  0.00
  C11                     1.00   0.00  0.28  0.00  0.15  0.57  0.00  0.00  0.72  0.00
  C20                     1.00   0.00  0.00  0.00  0.54  0.46  0.00  0.00  0.98  0.00
  C22                     1.00   0.00  0.00  0.00  0.71  0.28  0.00  0.00  1.00  0.00
  C12                     1.00   0.00  0.28  0.00  0.21  0.51  0.00  0.00  0.72  0.00
  C17                     1.00   0.00  0.00  0.00  0.39  0.61  0.00  0.00  0.91  0.00
  C10                     1.00   0.00  0.00  0.00  0.97  0.03  0.00  0.00  0.98  0.00
  C13                     1.00   0.00  0.00  0.00  0.88  0.12  0.00  0.00  0.91  0.00
  C18                     1.00   0.00  0.00  0.00  0.95  0.05  0.00  0.00  0.97  0.00
  C23                     1.00   0.00  0.00  0.00  0.81  0.19  0.00  0.00  0.94  0.00
  C4                      1.00   0.00  0.00  0.00  0.97  0.03  0.00  0.00  0.98  0.00
  C7                      1.00   0.00  0.00  0.00  0.95  0.05  0.00  0.00  0.97  0.00
  C14                     1.00   0.00  0.00  0.00  0.00  0.99  0.00  0.00  0.32  0.00
  C5                      1.00   0.00  0.00  0.00  0.89  0.11  0.00  0.00  0.98  0.00
  C8                      1.00   0.00  0.00  0.00  0.06  0.94  0.00  0.00  0.00  0.00
  C15                     1.00   0.00  0.00  0.00  0.00  1.00  0.00  0.00  0.00  0.00
  C21                     1.00   0.00  0.00  0.00  0.00  1.00  0.00  0.00  0.00  0.00
  
  
  *************************
  Conduit Surcharge Summary
  *************************
  
  ----------------------------------------------------------------------------
                                                           Hours        Hours 
                         --------- Hours Full --------   Above Full   Capacity
  Conduit                Both Ends  Upstream  Dnstream   Normal Flow   Limited
  ----------------------------------------------------------------------------
  C10                         0.01      0.01      5.86      0.01         0.01
  C13                         0.01      0.01      4.98      0.01         0.01
  C18                         0.01      0.01      5.14      0.01         0.01
  C23                         0.01      0.01      5.57      0.01         0.01
  C4                          0.01      0.01      6.06      0.01         0.01
  C7                          0.01      0.01      5.75      0.01         0.01
  C5                          0.01      0.01      0.01      0.03         0.01
  

  Analysis begun on:  Fri Sep  3 19:58:51 2021
  Analysis ended on:  Fri Sep  3 19:58:52 2021
  Total elapsed time: 00:00:01