
  EPA STORM WATER MANAGEMENT MODEL - VERSION 5.1 (Build 5.3.0.dev0)
  --------------------------------------------------------------

  
  *********************************************************
  NOTE: The summary statistics displayed in this report are
  based on results found at every computational time step,  
  not just on results from each reporting time step.
  *********************************************************
  
  ****************
  Analysis Options
  ****************
  Flow Units ............... CMS
  Process Models:
    Rainfall/Runoff ........ YES
    RDII ................... NO
    Snowmelt ............... NO
    Groundwater ............ NO
    Flow Routing ........... YES
    Ponding Allowed ........ YES
    Water Quality .......... NO
  Infiltration Method ...... HORTON
  Flow Routing Method ...... DYNWAVE
  Surcharge Method ......... EXTRAN
  Starting Date ............ 08/28/2015 08:00:00
  Ending Date .............. 08/28/2015 15:50:00
  Antecedent Dry Days ...... 0.0
  Report Time Step ......... 00:01:00
  Wet Time Step ............ 00:01:00
  Dry Time Step ............ 00:01:00
  Routing Time Step ........ 5.00 sec
  Variable Time Step ....... YES
  Maximum Trials ........... 8
  Number of Threads ........ 1
  Head Tolerance ........... 0.001500 m
  
  
  **************************        Volume         Depth
  Runoff Quantity Continuity     hectare-m            mm
  **************************     ---------       -------
  Total Precipitation ......         0.994         5.518
  Evaporation Loss .........         0.000         0.000
  Infiltration Loss ........         0.000         0.000
  Surface Runoff ...........         0.971         5.390
  Final Storage ............         0.023         0.129
  Continuity Error (%) .....        -0.007
  
  
  **************************        Volume        Volume
  Flow Routing Continuity        hectare-m      10^6 ltr
  **************************     ---------     ---------
  Dry Weather Inflow .......         0.396         3.955
  Wet Weather Inflow .......         0.971         9.712
  Groundwater Inflow .......         0.000         0.000
  RDII Inflow ..............         0.000         0.000
  External Inflow ..........         0.000         0.000
  External Outflow .........         0.496         4.957
  Flooding Loss ............         0.099         0.990
  Evaporation Loss .........         0.000         0.000
  Exfiltration Loss ........         0.000         0.000
  Initial Stored Volume ....         0.000         0.000
  Final Stored Volume ......         0.600         6.002
  Continuity Error (%) .....        12.573
  
  
  *************************
  Highest Continuity Errors
  *************************
  Node T5 (35.31%)
  Node T2 (35.00%)
  Node T4 (24.10%)
  Node T6 (22.20%)
  Node T3 (20.95%)
  
  
  ***************************
  Time-Step Critical Elements
  ***************************
  None
  
  
  ********************************
  Highest Flow Instability Indexes
  ********************************
  All links are stable.
  
  
  *************************
  Routing Time Step Summary
  *************************
  Minimum Time Step           :     4.50 sec
  Average Time Step           :     5.00 sec
  Maximum Time Step           :     5.00 sec
  Percent in Steady State     :     0.00
  Average Iterations per Step :     2.01
  Percent Not Converging      :     0.04
  
  
  ***************************
  Subcatchment Runoff Summary
  ***************************
  
  ------------------------------------------------------------------------------------------------------------------------------
                            Total      Total      Total      Total     Imperv       Perv      Total       Total     Peak  Runoff
                           Precip      Runon       Evap      Infil     Runoff     Runoff     Runoff      Runoff   Runoff   Coeff
  Subcatchment                 mm         mm         mm         mm         mm         mm         mm    10^6 ltr      CMS
  ------------------------------------------------------------------------------------------------------------------------------
  SC01                       5.52       0.00       0.00       0.00       5.43       0.00       5.43        1.79     0.40   0.985
  SC02                       5.52       0.00       0.00       0.00       5.43       0.00       5.43        1.23     0.27   0.984
  SC03                       5.52       0.00       0.00       0.00       5.45       0.00       5.45        0.98     0.23   0.988
  SC04                       5.52       0.00       0.00       0.00       5.33       0.00       5.33        0.37     0.07   0.966
  SC05                       5.52       0.00       0.00       0.00       5.43       0.00       5.43        0.85     0.19   0.983
  SC06                       5.52       0.00       0.00       0.00       5.28       0.00       5.28        1.72     0.33   0.956
  SC07                       5.52       0.00       0.00       0.00       5.33       0.00       5.33        0.25     0.05   0.966
  SC08                       5.52       0.00       0.00       0.00       5.40       0.00       5.40        1.51     0.32   0.979
  SC09                       5.52       0.00       0.00       0.00       5.38       0.00       5.38        0.37     0.08   0.975
  SC010                      5.52       0.00       0.00       0.00       5.41       0.00       5.41        0.64     0.14   0.980
  
  
  ******************
  Node Depth Summary
  ******************
  
  ---------------------------------------------------------------------------------
                                 Average  Maximum  Maximum  Time of Max    Reported
                                   Depth    Depth      HGL   Occurrence   Max Depth
  Node                 Type       Meters   Meters   Meters  days hr:min      Meters
  ---------------------------------------------------------------------------------
  J1                   JUNCTION     0.07     0.15    34.15     0  03:01        0.15
  J3                   JUNCTION     0.07     0.11    18.11     0  06:06        0.11
  CSO7                 JUNCTION     0.10     0.22    34.22     0  03:01        0.22
  J5                   JUNCTION     0.06     0.12    32.12     0  03:01        0.12
  CSO9                 JUNCTION     0.11     0.62    40.62     0  03:00        0.53
  J8                   JUNCTION     0.10     0.22    36.22     0  03:01        0.22
  CSO8                 JUNCTION     0.13     0.42    32.42     0  03:01        0.42
  J10                  JUNCTION     0.09     0.23    29.23     0  03:01        0.23
  J13                  JUNCTION     0.06     0.15    29.15     0  03:01        0.15
  J15                  JUNCTION     0.15     0.27    15.27     0  03:02        0.27
  J16                  JUNCTION     0.06     0.16    30.16     0  03:01        0.16
  CSO10                JUNCTION     0.11     0.33    30.33     0  03:01        0.33
  J12                  JUNCTION     0.13     0.26    26.26     0  03:03        0.26
  J4                   JUNCTION     0.12     0.25    33.25     0  03:03        0.25
  J6                   JUNCTION     0.05     0.07    25.07     0  05:07        0.07
  J2                   JUNCTION     0.00     0.00    25.00     0  00:00        0.00
  J19                  JUNCTION     0.13     0.17     8.17     0  03:36        0.17
  J9                   JUNCTION     0.07     0.11    29.11     0  04:20        0.11
  J14                  JUNCTION     0.09     0.14    20.14     0  06:34        0.14
  J17                  JUNCTION     0.05     0.07    20.07     0  04:56        0.07
  J7                   JUNCTION     0.08     0.18    39.18     0  03:02        0.18
  J11                  JUNCTION     0.09     0.24    31.24     0  03:02        0.24
  J18                  JUNCTION     0.05     0.14    29.14     0  03:02        0.14
  Out_to_WWTP          OUTFALL      0.13     0.17     6.17     0  03:32        0.17
  T5                   STORAGE      3.49     5.00    32.00     0  03:28        5.00
  T4                   STORAGE      2.47     3.75    30.75     0  05:05        3.75
  T6                   STORAGE      3.47     5.00    36.00     0  03:03        5.00
  T3                   STORAGE      2.18     3.34    25.34     0  06:22        3.34
  T2                   STORAGE      2.22     3.26    24.26     0  04:54        3.26
  T1                   STORAGE      2.71     4.99    14.99     0  03:36        4.99
  
  
  *******************
  Node Inflow Summary
  *******************
  
  -------------------------------------------------------------------------------------------------
                                  Maximum  Maximum                  Lateral       Total        Flow
                                  Lateral    Total  Time of Max      Inflow      Inflow     Balance
                                   Inflow   Inflow   Occurrence      Volume      Volume       Error
  Node                 Type           CMS      CMS  days hr:min    10^6 ltr    10^6 ltr     Percent
  -------------------------------------------------------------------------------------------------
  J1                   JUNCTION     0.210    0.210     0  03:01        1.41        1.41       0.062
  J3                   JUNCTION     0.000    0.125     0  06:03           0         2.3       1.290
  CSO7                 JUNCTION     0.062    0.062     0  03:01       0.544       0.544       0.088
  J5                   JUNCTION     0.078    0.136     0  03:01       0.495        1.03       0.172
  CSO9                 JUNCTION     0.085    0.085     0  03:01       0.567       0.567       0.064
  J8                   JUNCTION     0.367    0.446     0  03:01        2.66        3.22       0.191
  CSO8                 JUNCTION     0.333    0.333     0  03:01         1.8         1.8       0.030
  J10                  JUNCTION     0.242    0.561     0  03:01        1.37        3.16       0.162
  J13                  JUNCTION     0.292    0.292     0  03:01         1.7         1.7      -0.169
  J15                  JUNCTION     0.000    0.677     0  03:01           0        5.89       1.121
  J16                  JUNCTION     0.422    0.422     0  03:01        2.35        2.35      -0.005
  CSO10                JUNCTION     0.142    0.142     0  03:01       0.774       0.774       0.055
  J12                  JUNCTION     0.000    0.623     0  03:01           0        4.56       0.495
  J4                   JUNCTION     0.000    0.062     0  03:01           0       0.543       0.689
  J6                   JUNCTION     0.000    0.024     0  05:05           0       0.448       0.746
  J2                   JUNCTION     0.000    0.000     0  00:00           0           0       0.000 ltr
  J19                  JUNCTION     0.000    0.270     0  03:36           0        4.97       0.205
  J9                   JUNCTION     0.000    0.075     0  03:03           0        1.42       1.463
  J14                  JUNCTION     0.000    0.101     0  06:22           0        1.86       0.320
  J17                  JUNCTION     0.000    0.027     0  04:54           0       0.502       1.316
  J7                   JUNCTION     0.000    0.085     0  03:01           0       0.567       0.563
  J11                  JUNCTION     0.000    0.330     0  03:01           0         1.8       0.334
  J18                  JUNCTION     0.000    0.141     0  03:01           0       0.774       0.097
  Out_to_WWTP          OUTFALL      0.000    0.270     0  03:37           0        4.96       0.000
  T5                   STORAGE      0.000    0.207     0  03:01           0        1.41      54.585
  T4                   STORAGE      0.000    0.134     0  03:01           0        1.03      31.750
  T6                   STORAGE      0.000    0.439     0  03:01           0        3.22      28.538
  T3                   STORAGE      0.000    0.610     0  03:03           0        4.54      26.509
  T2                   STORAGE      0.000    0.288     0  03:01           0        1.71      53.836
  T1                   STORAGE      0.000    0.653     0  03:02           0        5.82       8.846
  
  
  **********************
  Node Surcharge Summary
  **********************
  
  Surcharging occurs when water rises above the top of the highest conduit.
  ---------------------------------------------------------------------
                                               Max. Height   Min. Depth
                                   Hours       Above Crown    Below Rim
  Node                 Type      Surcharged         Meters       Meters
  ---------------------------------------------------------------------
  CSO9                 JUNCTION        0.06          0.303        1.379
  
  
  *********************
  Node Flooding Summary
  *********************
  
  Flooding refers to all water that overflows a node, whether it ponds or not.
  --------------------------------------------------------------------------
                                                             Total   Maximum
                                 Maximum   Time of Max       Flood    Ponded
                        Hours       Rate    Occurrence      Volume     Depth
  Node                 Flooded       CMS   days hr:min    10^6 ltr    Meters
  --------------------------------------------------------------------------
  T5                      4.36     0.062      0  03:28       0.411     0.000
  T6                      1.97     0.352      0  03:03       0.579     0.000
  
  
  **********************
  Storage Volume Summary
  **********************
  
  --------------------------------------------------------------------------------------------------
                         Average     Avg  Evap Exfil       Maximum     Max    Time of Max    Maximum
                          Volume    Pcnt  Pcnt  Pcnt        Volume    Pcnt     Occurrence    Outflow
  Storage Unit           1000 m3    Full  Loss  Loss       1000 m3    Full    days hr:min        CMS
  --------------------------------------------------------------------------------------------------
  T5                       0.349      70     0     0         0.500     100       0  03:28      0.000
  T4                       0.247      49     0     0         0.375      75       0  05:05      0.024
  T6                       0.417      69     0     0         0.600     100       0  03:03      0.075
  T3                       1.136      44     0     0         1.738      67       0  06:22      0.101
  T2                       0.444      44     0     0         0.653      65       0  04:54      0.027
  T1                       0.379      54     0     0         0.698     100       0  03:36      0.270
  
  
  ***********************
  Outfall Loading Summary
  ***********************
  
  -----------------------------------------------------------
                         Flow       Avg       Max       Total
                         Freq      Flow      Flow      Volume
  Outfall Node           Pcnt       CMS       CMS    10^6 ltr
  -----------------------------------------------------------
  Out_to_WWTP           99.01     0.178     0.270       4.957
  -----------------------------------------------------------
  System                99.01     0.178     0.270       4.957
  
  
  ********************
  Link Flow Summary
  ********************
  
  -----------------------------------------------------------------------------
                                 Maximum  Time of Max   Maximum    Max/    Max/
                                  |Flow|   Occurrence   |Veloc|    Full    Full
  Link                 Type          CMS  days hr:min     m/sec    Flow   Depth
  -----------------------------------------------------------------------------
  C1                   CONDUIT     0.000     0  00:00      0.00    0.00    0.06
  C6                   CONDUIT     0.059     0  03:03      1.27    0.93    0.63
  C2                   CONDUIT     0.024     0  05:07      0.98    0.03    0.15
  C9                   CONDUIT     0.081     0  03:02      1.13    0.28    0.40
  C16                  CONDUIT     0.324     0  03:02      1.56    0.03    0.12
  C3                   CONDUIT     0.101     0  06:23      1.77    0.04    0.13
  C19                  CONDUIT     0.027     0  04:56      0.59    0.01    0.17
  C11                  CONDUIT     0.125     0  06:06      1.47    0.01    0.09
  C20                  CONDUIT     0.417     0  03:01      2.28    0.01    0.11
  C22                  CONDUIT     0.138     0  03:02      1.37    0.06    0.26
  C12                  CONDUIT     0.075     0  04:20      1.09    0.01    0.09
  C17                  CONDUIT     0.551     0  03:01      2.55    0.03    0.12
  C10                  CONDUIT     0.439     0  03:01      1.65    0.05    0.57
  C13                  CONDUIT     0.610     0  03:03      1.31    0.04    0.56
  C18                  CONDUIT     0.288     0  03:01      1.72    0.01    0.54
  C23                  CONDUIT     0.653     0  03:02      1.22    0.07    0.59
  C4                   CONDUIT     0.207     0  03:01      1.97    0.05    0.58
  C7                   CONDUIT     0.134     0  03:01      1.41    0.03    0.56
  C14                  CONDUIT     0.270     0  03:37      2.08    0.02    0.09
  C5                   CONDUIT     0.062     0  03:01      1.24    1.05    0.93
  C8                   CONDUIT     0.085     0  03:01      1.30    1.07    0.78
  C15                  CONDUIT     0.330     0  03:01      2.66    1.05    0.73
  C21                  CONDUIT     0.141     0  03:01      1.74    0.81    0.53
  V4                   ORIFICE     0.024     0  05:05                      0.35
  V5                   ORIFICE     0.000     0  00:00                      0.00
  V1                   ORIFICE     0.270     0  03:36                      1.00
  V6                   ORIFICE     0.075     0  03:03                      0.43
  V3                   ORIFICE     0.101     0  06:22                      0.65
  V2                   ORIFICE     0.027     0  04:54                      0.24
  
  
  ***************************
  Flow Classification Summary
  ***************************
  
  -------------------------------------------------------------------------------------
                      Adjusted    ---------- Fraction of Time in Flow Class ---------- 
                       /Actual         Up    Down  Sub   Sup   Up    Down  Norm  Inlet 
  Conduit               Length    Dry  Dry   Dry   Crit  Crit  Crit  Crit  Ltd   Ctrl  
  -------------------------------------------------------------------------------------
  C1                      1.00   0.30  0.70  0.00  0.00  0.00  0.00  0.00  0.00  0.00
  C6                      1.00   0.00  0.00  0.00  0.01  0.99  0.00  0.00  0.00  0.00
  C2                      1.00   0.30  0.00  0.00  0.00  0.70  0.00  0.00  0.68  0.00
  C9                      1.00   0.00  0.00  0.00  1.00  0.00  0.00  0.00  1.00  0.00
  C16                     1.00   0.00  0.00  0.00  0.58  0.42  0.00  0.00  0.48  0.00
  C3                      1.00   0.30  0.00  0.00  0.00  0.70  0.00  0.00  0.00  0.00
  C19                     1.00   0.00  0.30  0.00  0.70  0.00  0.00  0.00  0.70  0.00
  C11                     1.00   0.00  0.30  0.00  0.13  0.57  0.00  0.00  0.70  0.00
  C20                     1.00   0.00  0.00  0.00  0.53  0.47  0.00  0.00  0.98  0.00
  C22                     1.00   0.00  0.00  0.00  0.71  0.29  0.00  0.00  1.00  0.00
  C12                     1.00   0.00  0.30  0.00  0.19  0.51  0.00  0.00  0.70  0.00
  C17                     1.00   0.00  0.00  0.00  0.39  0.61  0.00  0.00  0.91  0.00
  C10                     1.00   0.00  0.00  0.00  0.97  0.03  0.00  0.00  0.98  0.00
  C13                     1.00   0.00  0.00  0.00  0.88  0.12  0.00  0.00  0.91  0.00
  C18                     1.00   0.00  0.00  0.00  0.95  0.05  0.00  0.00  0.97  0.00
  C23                     1.00   0.00  0.00  0.00  0.81  0.19  0.00  0.00  0.94  0.00
  C4                      1.00   0.00  0.00  0.00  0.97  0.03  0.00  0.00  0.98  0.00
  C7                      1.00   0.00  0.00  0.00  0.95  0.05  0.00  0.00  0.97  0.00
  C14                     1.00   0.00  0.00  0.00  0.00  0.99  0.00  0.00  0.33  0.00
  C5                      1.00   0.00  0.00  0.00  0.89  0.11  0.00  0.00  0.98  0.00
  C8                      1.00   0.00  0.00  0.00  0.05  0.95  0.00  0.00  0.00  0.00
  C15                     1.00   0.00  0.00  0.00  0.00  1.00  0.00  0.00  0.00  0.00
  C21                     1.00   0.00  0.00  0.00  0.00  1.00  0.00  0.00  0.00  0.00
  
  
  *************************
  Conduit Surcharge Summary
  *************************
  
  ----------------------------------------------------------------------------
                                                           Hours        Hours 
                         --------- Hours Full --------   Above Full   Capacity
  Conduit                Both Ends  Upstream  Dnstream   Normal Flow   Limited
  ----------------------------------------------------------------------------
  C10                         0.01      0.01      5.80      0.01         0.01
  C13                         0.01      0.01      4.90      0.01         0.01
  C18                         0.01      0.01      5.06      0.01         0.01
  C23                         0.01      0.01      5.46      0.01         0.01
  C4                          0.01      0.01      6.01      0.01         0.01
  C7                          0.01      0.01      5.69      0.01         0.01
  C5                          0.01      0.01      0.01      0.07         0.01
  C8                          0.01      0.06      0.01      0.06         0.01
  C15                         0.01      0.01      0.01      0.08         0.01
  

  Analysis begun on:  Fri Sep  3 19:59:03 2021
  Analysis ended on:  Fri Sep  3 19:59:03 2021
  Total elapsed time: < 1 sec