
  EPA STORM WATER MANAGEMENT MODEL - VERSION 5.1 (Build 5.3.0.dev0)
  --------------------------------------------------------------

  
  *********************************************************
  NOTE: The summary statistics displayed in this report are
  based on results found at every computational time step,  
  not just on results from each reporting time step.
  *********************************************************
  
  ****************
  Analysis Options
  ****************
  Flow Units ............... CMS
  Process Models:
    Rainfall/Runoff ........ YES
    RDII ................... NO
    Snowmelt ............... NO
    Groundwater ............ NO
    Flow Routing ........... YES
    Ponding Allowed ........ YES
    Water Quality .......... NO
  Infiltration Method ...... HORTON
  Flow Routing Method ...... DYNWAVE
  Surcharge Method ......... EXTRAN
  Starting Date ............ 08/28/2015 08:00:00
  Ending Date .............. 08/28/2015 15:50:00
  Antecedent Dry Days ...... 0.0
  Report Time Step ......... 00:01:00
  Wet Time Step ............ 00:01:00
  Dry Time Step ............ 00:01:00
  Routing Time Step ........ 5.00 sec
  Variable Time Step ....... YES
  Maximum Trials ........... 8
  Number of Threads ........ 1
  Head Tolerance ........... 0.001500 m
  
  
  **************************        Volume         Depth
  Runoff Quantity Continuity     hectare-m            mm
  **************************     ---------       -------
  Total Precipitation ......         0.915         5.079
  Evaporation Loss .........         0.000         0.000
  Infiltration Loss ........         0.000         0.000
  Surface Runoff ...........         0.893         4.953
  Final Storage ............         0.023         0.126
  Continuity Error (%) .....        -0.017
  
  
  **************************        Volume        Volume
  Flow Routing Continuity        hectare-m      10^6 ltr
  **************************     ---------     ---------
  Dry Weather Inflow .......         0.396         3.955
  Wet Weather Inflow .......         0.893         8.926
  Groundwater Inflow .......         0.000         0.000
  RDII Inflow ..............         0.000         0.000
  External Inflow ..........         0.000         0.000
  External Outflow .........         0.490         4.901
  Flooding Loss ............         0.067         0.668
  Evaporation Loss .........         0.000         0.000
  Exfiltration Loss ........         0.000         0.000
  Initial Stored Volume ....         0.000         0.000
  Final Stored Volume ......         0.576         5.764
  Continuity Error (%) .....        12.023
  
  
  *************************
  Highest Continuity Errors
  *************************
  Node T5 (37.18%)
  Node T2 (34.03%)
  Node T6 (23.32%)
  Node T4 (23.02%)
  Node T3 (20.32%)
  
  
  ***************************
  Time-Step Critical Elements
  ***************************
  None
  
  
  ********************************
  Highest Flow Instability Indexes
  ********************************
  All links are stable.
  
  
  *************************
  Routing Time Step Summary
  *************************
  Minimum Time Step           :     4.50 sec
  Average Time Step           :     5.00 sec
  Maximum Time Step           :     5.00 sec
  Percent in Steady State     :     0.00
  Average Iterations per Step :     2.00
  Percent Not Converging      :     0.00
  
  
  ***************************
  Subcatchment Runoff Summary
  ***************************
  
  ------------------------------------------------------------------------------------------------------------------------------
                            Total      Total      Total      Total     Imperv       Perv      Total       Total     Peak  Runoff
                           Precip      Runon       Evap      Infil     Runoff     Runoff     Runoff      Runoff   Runoff   Coeff
  Subcatchment                 mm         mm         mm         mm         mm         mm         mm    10^6 ltr      CMS
  ------------------------------------------------------------------------------------------------------------------------------
  SC01                       5.08       0.00       0.00       0.00       4.99       0.00       4.99        1.65     0.29   0.983
  SC02                       5.08       0.00       0.00       0.00       4.99       0.00       4.99        1.14     0.20   0.982
  SC03                       5.08       0.00       0.00       0.00       5.01       0.00       5.01        0.90     0.17   0.987
  SC04                       5.08       0.00       0.00       0.00       4.89       0.00       4.89        0.34     0.05   0.964
  SC05                       5.08       0.00       0.00       0.00       4.99       0.00       4.99        0.78     0.13   0.982
  SC06                       5.08       0.00       0.00       0.00       4.85       0.00       4.85        1.58     0.24   0.954
  SC07                       5.08       0.00       0.00       0.00       4.89       0.00       4.89        0.23     0.04   0.964
  SC08                       5.08       0.00       0.00       0.00       4.96       0.00       4.96        1.39     0.23   0.978
  SC09                       5.08       0.00       0.00       0.00       4.94       0.00       4.94        0.34     0.06   0.973
  SC010                      5.08       0.00       0.00       0.00       4.97       0.00       4.97        0.58     0.10   0.978
  
  
  ******************
  Node Depth Summary
  ******************
  
  ---------------------------------------------------------------------------------
                                 Average  Maximum  Maximum  Time of Max    Reported
                                   Depth    Depth      HGL   Occurrence   Max Depth
  Node                 Type       Meters   Meters   Meters  days hr:min      Meters
  ---------------------------------------------------------------------------------
  J1                   JUNCTION     0.07     0.13    34.13     0  03:01        0.13
  J3                   JUNCTION     0.08     0.11    18.11     0  06:12        0.11
  CSO7                 JUNCTION     0.10     0.18    34.18     0  03:01        0.18
  J5                   JUNCTION     0.06     0.11    32.11     0  03:01        0.11
  CSO9                 JUNCTION     0.10     0.22    40.22     0  03:01        0.22
  J8                   JUNCTION     0.10     0.19    36.19     0  03:01        0.19
  CSO8                 JUNCTION     0.12     0.31    32.31     0  03:01        0.31
  J10                  JUNCTION     0.09     0.20    29.20     0  03:01        0.20
  J13                  JUNCTION     0.06     0.13    29.13     0  03:01        0.13
  J15                  JUNCTION     0.15     0.24    15.24     0  03:02        0.24
  J16                  JUNCTION     0.06     0.14    30.14     0  03:01        0.14
  CSO10                JUNCTION     0.11     0.27    30.27     0  03:01        0.27
  J12                  JUNCTION     0.13     0.23    26.23     0  03:03        0.23
  J4                   JUNCTION     0.12     0.21    33.21     0  03:03        0.21
  J6                   JUNCTION     0.05     0.07    25.07     0  05:10        0.07
  J2                   JUNCTION     0.00     0.00    25.00     0  00:00        0.00
  J19                  JUNCTION     0.13     0.17     8.17     0  03:35        0.17
  J9                   JUNCTION     0.08     0.11    29.11     0  04:25        0.11
  J14                  JUNCTION     0.10     0.14    20.14     0  07:05        0.14
  J17                  JUNCTION     0.05     0.07    20.07     0  05:02        0.07
  J7                   JUNCTION     0.08     0.16    39.16     0  03:02        0.15
  J11                  JUNCTION     0.09     0.21    31.21     0  03:01        0.21
  J18                  JUNCTION     0.05     0.12    29.12     0  03:02        0.12
  Out_to_WWTP          OUTFALL      0.13     0.17     6.17     0  03:35        0.17
  T5                   STORAGE      3.54     5.00    32.00     0  03:50        5.00
  T4                   STORAGE      2.29     3.37    30.37     0  05:08        3.37
  T6                   STORAGE      3.52     5.00    36.00     0  03:11        5.00
  T3                   STORAGE      2.09     3.12    25.12     0  06:57        3.12
  T2                   STORAGE      2.07     2.95    23.95     0  05:00        2.95
  T1                   STORAGE      2.54     4.44    14.44     0  03:34        4.44
  
  
  *******************
  Node Inflow Summary
  *******************
  
  -------------------------------------------------------------------------------------------------
                                  Maximum  Maximum                  Lateral       Total        Flow
                                  Lateral    Total  Time of Max      Inflow      Inflow     Balance
                                   Inflow   Inflow   Occurrence      Volume      Volume       Error
  Node                 Type           CMS      CMS  days hr:min    10^6 ltr    10^6 ltr     Percent
  -------------------------------------------------------------------------------------------------
  J1                   JUNCTION     0.157    0.157     0  03:01        1.34        1.34       0.038
  J3                   JUNCTION     0.000    0.120     0  06:09           0        2.35       1.213
  CSO7                 JUNCTION     0.048    0.048     0  03:01       0.523       0.523       0.086
  J5                   JUNCTION     0.058    0.103     0  03:01       0.465       0.984       0.164
  CSO9                 JUNCTION     0.064    0.064     0  03:01       0.537       0.537       0.078
  J8                   JUNCTION     0.278    0.338     0  03:01        2.52        3.05       0.180
  CSO8                 JUNCTION     0.243    0.243     0  03:01        1.68        1.68       0.028
  J10                  JUNCTION     0.186    0.412     0  03:01        1.29        2.96       0.160
  J13                  JUNCTION     0.215    0.215     0  03:01         1.6         1.6      -0.210
  J15                  JUNCTION     0.000    0.527     0  03:01           0        5.75       1.120
  J16                  JUNCTION     0.309    0.309     0  03:01         2.2         2.2      -0.021
  CSO10                JUNCTION     0.104    0.104     0  03:01       0.723       0.723       0.053
  J12                  JUNCTION     0.000    0.474     0  03:01           0        4.45       0.507
  J4                   JUNCTION     0.000    0.048     0  03:01           0       0.522       0.721
  J6                   JUNCTION     0.000    0.023     0  05:08           0       0.453       0.718
  J2                   JUNCTION     0.000    0.000     0  00:00           0           0       0.000 ltr
  J19                  JUNCTION     0.000    0.255     0  03:34           0        4.91       0.199
  J9                   JUNCTION     0.000    0.075     0  03:11           0        1.51       1.313
  J14                  JUNCTION     0.000    0.098     0  06:57           0        1.91       0.307
  J17                  JUNCTION     0.000    0.025     0  05:00           0        0.51       1.201
  J7                   JUNCTION     0.000    0.063     0  03:01           0       0.537       0.606
  J11                  JUNCTION     0.000    0.242     0  03:01           0        1.68       0.372
  J18                  JUNCTION     0.000    0.103     0  03:01           0       0.722       0.100
  Out_to_WWTP          OUTFALL      0.000    0.255     0  03:35           0         4.9       0.000
  T5                   STORAGE      0.000    0.155     0  03:01           0        1.34      59.177
  T4                   STORAGE      0.000    0.102     0  03:01           0       0.982      29.906
  T6                   STORAGE      0.000    0.333     0  03:01           0        3.05      30.417
  T3                   STORAGE      0.000    0.464     0  03:03           0        4.43      25.496
  T2                   STORAGE      0.000    0.212     0  03:01           0        1.61      51.577
  T1                   STORAGE      0.000    0.509     0  03:02           0        5.69       8.248
  
  
  **********************
  Node Surcharge Summary
  **********************
  
  No nodes were surcharged.
  
  
  *********************
  Node Flooding Summary
  *********************
  
  Flooding refers to all water that overflows a node, whether it ponds or not.
  --------------------------------------------------------------------------
                                                             Total   Maximum
                                 Maximum   Time of Max       Flood    Ponded
                        Hours       Rate    Occurrence      Volume     Depth
  Node                 Flooded       CMS   days hr:min    10^6 ltr    Meters
  --------------------------------------------------------------------------
  T5                      4.00     0.038      0  03:50       0.342     0.000
  T6                      1.81     0.194      0  03:11       0.326     0.000
  
  
  **********************
  Storage Volume Summary
  **********************
  
  --------------------------------------------------------------------------------------------------
                         Average     Avg  Evap Exfil       Maximum     Max    Time of Max    Maximum
                          Volume    Pcnt  Pcnt  Pcnt        Volume    Pcnt     Occurrence    Outflow
  Storage Unit           1000 m3    Full  Loss  Loss       1000 m3    Full    days hr:min        CMS
  --------------------------------------------------------------------------------------------------
  T5                       0.354      71     0     0         0.500     100       0  03:50      0.000
  T4                       0.229      46     0     0         0.337      67       0  05:08      0.023
  T6                       0.423      70     0     0         0.600     100       0  03:11      0.075
  T3                       1.088      42     0     0         1.625      62       0  06:57      0.098
  T2                       0.415      41     0     0         0.590      59       0  05:00      0.025
  T1                       0.356      51     0     0         0.622      89       0  03:34      0.255
  
  
  ***********************
  Outfall Loading Summary
  ***********************
  
  -----------------------------------------------------------
                         Flow       Avg       Max       Total
                         Freq      Flow      Flow      Volume
  Outfall Node           Pcnt       CMS       CMS    10^6 ltr
  -----------------------------------------------------------
  Out_to_WWTP           99.01     0.176     0.255       4.901
  -----------------------------------------------------------
  System                99.01     0.176     0.255       4.901
  
  
  ********************
  Link Flow Summary
  ********************
  
  -----------------------------------------------------------------------------
                                 Maximum  Time of Max   Maximum    Max/    Max/
                                  |Flow|   Occurrence   |Veloc|    Full    Full
  Link                 Type          CMS  days hr:min     m/sec    Flow   Depth
  -----------------------------------------------------------------------------
  C1                   CONDUIT     0.000     0  00:00      0.00    0.00    0.06
  C6                   CONDUIT     0.046     0  03:03      1.23    0.73    0.53
  C2                   CONDUIT     0.023     0  05:10      0.93    0.03    0.15
  C9                   CONDUIT     0.061     0  03:02      1.02    0.21    0.34
  C16                  CONDUIT     0.236     0  03:02      1.42    0.02    0.10
  C3                   CONDUIT     0.098     0  06:58      1.75    0.04    0.12
  C19                  CONDUIT     0.025     0  05:02      0.58    0.01    0.15
  C11                  CONDUIT     0.120     0  06:12      1.46    0.01    0.09
  C20                  CONDUIT     0.306     0  03:01      3.11    0.01    0.09
  C22                  CONDUIT     0.101     0  03:02      1.24    0.05    0.22
  C12                  CONDUIT     0.075     0  04:25      1.09    0.01    0.08
  C17                  CONDUIT     0.404     0  03:01      2.42    0.02    0.11
  C10                  CONDUIT     0.333     0  03:01      1.65    0.03    0.56
  C13                  CONDUIT     0.464     0  03:03      1.68    0.03    0.56
  C18                  CONDUIT     0.212     0  03:01      1.72    0.01    0.53
  C23                  CONDUIT     0.509     0  03:02      1.86    0.06    0.58
  C4                   CONDUIT     0.155     0  03:01      1.97    0.04    0.57
  C7                   CONDUIT     0.102     0  03:01      1.41    0.03    0.55
  C14                  CONDUIT     0.255     0  03:35      2.04    0.01    0.08
  C5                   CONDUIT     0.048     0  03:01      1.22    0.82    0.75
  C8                   CONDUIT     0.063     0  03:01      1.28    0.79    0.60
  C15                  CONDUIT     0.242     0  03:01      2.53    0.77    0.57
  C21                  CONDUIT     0.103     0  03:01      1.63    0.59    0.43
  V4                   ORIFICE     0.023     0  05:08                      0.35
  V5                   ORIFICE     0.000     0  00:00                      0.00
  V1                   ORIFICE     0.255     0  03:34                      1.00
  V6                   ORIFICE     0.075     0  03:11                      0.43
  V3                   ORIFICE     0.098     0  06:57                      0.65
  V2                   ORIFICE     0.025     0  05:00                      0.24
  
  
  ***************************
  Flow Classification Summary
  ***************************
  
  -------------------------------------------------------------------------------------
                      Adjusted    ---------- Fraction of Time in Flow Class ---------- 
                       /Actual         Up    Down  Sub   Sup   Up    Down  Norm  Inlet 
  Conduit               Length    Dry  Dry   Dry   Crit  Crit  Crit  Crit  Ltd   Ctrl  
  -------------------------------------------------------------------------------------
  C1                      1.00   0.24  0.76  0.00  0.00  0.00  0.00  0.00  0.00  0.00
  C6                      1.00   0.00  0.00  0.00  0.01  0.99  0.00  0.00  0.00  0.00
  C2                      1.00   0.23  0.00  0.00  0.00  0.77  0.00  0.00  0.75  0.00
  C9                      1.00   0.00  0.00  0.00  1.00  0.00  0.00  0.00  1.00  0.00
  C16                     1.00   0.00  0.00  0.00  0.56  0.44  0.00  0.00  0.47  0.00
  C3                      1.00   0.23  0.00  0.00  0.00  0.77  0.00  0.00  0.00  0.00
  C19                     1.00   0.00  0.23  0.00  0.77  0.00  0.00  0.00  0.77  0.00
  C11                     1.00   0.00  0.23  0.00  0.19  0.58  0.00  0.00  0.77  0.00
  C20                     1.00   0.00  0.00  0.00  0.54  0.46  0.00  0.00  0.97  0.00
  C22                     1.00   0.00  0.00  0.00  0.71  0.29  0.00  0.00  1.00  0.00
  C12                     1.00   0.00  0.23  0.00  0.25  0.52  0.00  0.00  0.77  0.00
  C17                     1.00   0.00  0.00  0.00  0.40  0.60  0.00  0.00  0.94  0.00
  C10                     1.00   0.00  0.00  0.00  0.97  0.03  0.00  0.00  0.98  0.00
  C13                     1.00   0.00  0.00  0.00  0.86  0.14  0.00  0.00  0.90  0.00
  C18                     1.00   0.00  0.00  0.00  0.95  0.05  0.00  0.00  0.97  0.00
  C23                     1.00   0.00  0.00  0.00  0.84  0.16  0.00  0.00  0.93  0.00
  C4                      1.00   0.00  0.00  0.00  0.97  0.03  0.00  0.00  0.98  0.00
  C7                      1.00   0.00  0.00  0.00  0.95  0.05  0.00  0.00  0.97  0.00
  C14                     1.00   0.00  0.00  0.00  0.00  0.99  0.00  0.00  0.34  0.00
  C5                      1.00   0.00  0.00  0.00  0.93  0.07  0.00  0.00  0.97  0.00
  C8                      1.00   0.00  0.00  0.00  0.00  1.00  0.00  0.00  0.00  0.00
  C15                     1.00   0.00  0.00  0.00  0.00  1.00  0.00  0.00  0.00  0.00
  C21                     1.00   0.00  0.00  0.00  0.00  1.00  0.00  0.00  0.00  0.00
  
  
  *************************
  Conduit Surcharge Summary
  *************************
  
  ----------------------------------------------------------------------------
                                                           Hours        Hours 
                         --------- Hours Full --------   Above Full   Capacity
  Conduit                Both Ends  Upstream  Dnstream   Normal Flow   Limited
  ----------------------------------------------------------------------------
  C10                         0.01      0.01      6.08      0.01         0.01
  C13                         0.01      0.01      4.90      0.01         0.01
  C18                         0.01      0.01      5.05      0.01         0.01
  C23                         0.01      0.01      5.67      0.01         0.01
  C4                          0.01      0.01      6.31      0.01         0.01
  C7                          0.01      0.01      5.94      0.01         0.01
  

  Analysis begun on:  Fri Sep  3 20:15:04 2021
  Analysis ended on:  Fri Sep  3 20:15:04 2021
  Total elapsed time: < 1 sec