
  EPA STORM WATER MANAGEMENT MODEL - VERSION 5.1 (Build 5.3.0.dev0)
  --------------------------------------------------------------

  
  *********************************************************
  NOTE: The summary statistics displayed in this report are
  based on results found at every computational time step,  
  not just on results from each reporting time step.
  *********************************************************
  
  ****************
  Analysis Options
  ****************
  Flow Units ............... CMS
  Process Models:
    Rainfall/Runoff ........ YES
    RDII ................... NO
    Snowmelt ............... NO
    Groundwater ............ NO
    Flow Routing ........... YES
    Ponding Allowed ........ YES
    Water Quality .......... NO
  Infiltration Method ...... HORTON
  Flow Routing Method ...... DYNWAVE
  Surcharge Method ......... EXTRAN
  Starting Date ............ 08/28/2015 08:00:00
  Ending Date .............. 08/28/2015 15:50:00
  Antecedent Dry Days ...... 0.0
  Report Time Step ......... 00:01:00
  Wet Time Step ............ 00:01:00
  Dry Time Step ............ 00:01:00
  Routing Time Step ........ 5.00 sec
  Variable Time Step ....... YES
  Maximum Trials ........... 8
  Number of Threads ........ 1
  Head Tolerance ........... 0.001500 m
  
  
  **************************        Volume         Depth
  Runoff Quantity Continuity     hectare-m            mm
  **************************     ---------       -------
  Total Precipitation ......         2.652        14.714
  Evaporation Loss .........         0.000         0.000
  Infiltration Loss ........         0.000         0.000
  Surface Runoff ...........         2.628        14.586
  Final Storage ............         0.023         0.129
  Continuity Error (%) .....        -0.008
  
  
  **************************        Volume        Volume
  Flow Routing Continuity        hectare-m      10^6 ltr
  **************************     ---------     ---------
  Dry Weather Inflow .......         0.396         3.956
  Wet Weather Inflow .......         2.628        26.285
  Groundwater Inflow .......         0.000         0.000
  RDII Inflow ..............         0.000         0.000
  External Inflow ..........         0.000         0.000
  External Outflow .........         0.588         5.879
  Flooding Loss ............         1.378        13.781
  Evaporation Loss .........         0.000         0.000
  Exfiltration Loss ........         0.000         0.000
  Initial Stored Volume ....         0.000         0.000
  Final Stored Volume ......         0.803         8.031
  Continuity Error (%) .....         8.431
  
  
  *************************
  Highest Continuity Errors
  *************************
  Node T2 (22.97%)
  Node T3 (18.42%)
  Node T5 (17.29%)
  Node T4 (16.96%)
  Node T6 (10.78%)
  
  
  ***************************
  Time-Step Critical Elements
  ***************************
  None
  
  
  ********************************
  Highest Flow Instability Indexes
  ********************************
  All links are stable.
  
  
  *************************
  Routing Time Step Summary
  *************************
  Minimum Time Step           :     1.79 sec
  Average Time Step           :     5.00 sec
  Maximum Time Step           :     5.00 sec
  Percent in Steady State     :     0.00
  Average Iterations per Step :     2.17
  Percent Not Converging      :     0.57
  
  
  ***************************
  Subcatchment Runoff Summary
  ***************************
  
  ------------------------------------------------------------------------------------------------------------------------------
                            Total      Total      Total      Total     Imperv       Perv      Total       Total     Peak  Runoff
                           Precip      Runon       Evap      Infil     Runoff     Runoff     Runoff      Runoff   Runoff   Coeff
  Subcatchment                 mm         mm         mm         mm         mm         mm         mm    10^6 ltr      CMS
  ------------------------------------------------------------------------------------------------------------------------------
  SC01                      14.71       0.00       0.00       0.00      14.63       0.00      14.63        4.83     1.37   0.994
  SC02                      14.71       0.00       0.00       0.00      14.62       0.00      14.62        3.33     0.93   0.994
  SC03                      14.71       0.00       0.00       0.00      14.65       0.00      14.65        2.64     0.78   0.995
  SC04                      14.71       0.00       0.00       0.00      14.52       0.00      14.52        1.00     0.24   0.987
  SC05                      14.71       0.00       0.00       0.00      14.62       0.00      14.62        2.28     0.64   0.994
  SC06                      14.71       0.00       0.00       0.00      14.47       0.00      14.47        4.71     1.08   0.983
  SC07                      14.71       0.00       0.00       0.00      14.52       0.00      14.52        0.69     0.17   0.987
  SC08                      14.71       0.00       0.00       0.00      14.60       0.00      14.60        4.09     1.09   0.992
  SC09                      14.71       0.00       0.00       0.00      14.57       0.00      14.57        1.01     0.26   0.991
  SC010                     14.71       0.00       0.00       0.00      14.60       0.00      14.60        1.72     0.46   0.992
  
  
  ******************
  Node Depth Summary
  ******************
  
  ---------------------------------------------------------------------------------
                                 Average  Maximum  Maximum  Time of Max    Reported
                                   Depth    Depth      HGL   Occurrence   Max Depth
  Node                 Type       Meters   Meters   Meters  days hr:min      Meters
  ---------------------------------------------------------------------------------
  J1                   JUNCTION     0.09     0.27    34.27     0  01:58        0.27
  J3                   JUNCTION     0.09     0.12    18.12     0  03:16        0.12
  CSO7                 JUNCTION     0.30     1.20    35.20     0  01:36        1.20
  J5                   JUNCTION     0.08     0.19    32.19     0  02:02        0.19
  CSO9                 JUNCTION     0.37     2.00    42.00     0  01:37        2.00
  J8                   JUNCTION     0.13     0.36    36.36     0  02:04        0.36
  CSO8                 JUNCTION     0.38     2.00    34.00     0  01:34        2.00
  J10                  JUNCTION     0.12     0.34    29.34     0  01:58        0.34
  J13                  JUNCTION     0.08     0.26    29.26     0  01:58        0.26
  J15                  JUNCTION     0.19     0.44    15.44     0  02:01        0.44
  J16                  JUNCTION     0.08     0.28    30.28     0  01:58        0.28
  CSO10                JUNCTION     0.22     1.00    31.00     0  01:32        1.00
  J12                  JUNCTION     0.71     1.06    27.06     0  02:55        1.06
  J4                   JUNCTION     0.22     1.55    34.55     0  01:36        0.77
  J6                   JUNCTION     0.06     0.07    25.07     0  03:11        0.07
  J2                   JUNCTION     0.00     0.00    25.00     0  00:00        0.00
  J19                  JUNCTION     0.14     0.17     8.17     0  01:56        0.17
  J9                   JUNCTION     0.08     0.11    29.11     0  03:43        0.11
  J14                  JUNCTION     0.12     0.15    20.15     0  02:51        0.15
  J17                  JUNCTION     0.06     0.08    20.08     0  03:13        0.08
  J7                   JUNCTION     0.10     0.23    39.23     0  02:27        0.23
  J11                  JUNCTION     0.12     0.30    31.30     0  02:26        0.30
  J18                  JUNCTION     0.07     0.16    29.16     0  02:11        0.16
  Out_to_WWTP          OUTFALL      0.14     0.17     6.17     0  04:03        0.17
  T5                   STORAGE      3.97     5.00    32.00     0  01:58        5.00
  T4                   STORAGE      3.72     5.00    32.00     0  02:22        5.00
  T6                   STORAGE      3.88     5.00    36.00     0  01:56        5.00
  T3                   STORAGE      3.73     5.00    27.00     0  02:50        5.00
  T2                   STORAGE      3.80     5.00    26.00     0  02:09        5.00
  T1                   STORAGE      3.58     5.00    15.00     0  01:55        5.00
  
  
  *******************
  Node Inflow Summary
  *******************
  
  -------------------------------------------------------------------------------------------------
                                  Maximum  Maximum                  Lateral       Total        Flow
                                  Lateral    Total  Time of Max      Inflow      Inflow     Balance
                                   Inflow   Inflow   Occurrence      Volume      Volume       Error
  Node                 Type           CMS      CMS  days hr:min    10^6 ltr    10^6 ltr     Percent
  -------------------------------------------------------------------------------------------------
  J1                   JUNCTION     0.656    0.656     0  01:58        2.84        2.84       0.018
  J3                   JUNCTION     0.000    0.152     0  02:58           0        3.21       1.093
  CSO7                 JUNCTION     0.177    0.177     0  02:02        0.98        0.98       0.049
  J5                   JUNCTION     0.247    0.320     0  02:02        1.13        1.89       0.080
  CSO9                 JUNCTION     0.266    0.266     0  02:00         1.2         1.2       0.031
  J8                   JUNCTION     1.111    1.238     0  02:03        5.65        6.62       0.081
  CSO8                 JUNCTION     1.103    1.103     0  01:59        4.38        4.38       0.009
  J10                  JUNCTION     0.795    1.281     0  01:57        3.02        6.38      -0.044
  J13                  JUNCTION     0.947    0.947     0  01:58        3.79        3.79      -0.150
  J15                  JUNCTION     0.000    1.709     0  01:59           0        10.7       0.671
  J16                  JUNCTION     1.387    1.387     0  01:58        5.38        5.38      -0.035
  CSO10                JUNCTION     0.466    0.466     0  01:59        1.85        1.85       0.014
  J12                  JUNCTION     0.000    1.345     0  01:58           0        8.02       9.272
  J4                   JUNCTION     0.000    0.077     0  01:36           0       0.766       0.427
  J6                   JUNCTION     0.000    0.028     0  02:23           0       0.594       0.622
  J2                   JUNCTION     0.000    0.000     0  00:00           0           0       0.000 ltr
  J19                  JUNCTION     0.000    0.271     0  01:55           0        5.89       0.189
  J9                   JUNCTION     0.000    0.075     0  01:56           0        1.62       1.427
  J14                  JUNCTION     0.000    0.124     0  02:50           0        2.62       0.261
  J17                  JUNCTION     0.000    0.033     0  02:09           0       0.711       1.199
  J7                   JUNCTION     0.000    0.127     0  02:27           0       0.975       0.321
  J11                  JUNCTION     0.000    0.487     0  02:26           0        3.36       0.199
  J18                  JUNCTION     0.000    0.202     0  02:12           0        1.42       0.029
  Out_to_WWTP          OUTFALL      0.000    0.271     0  01:57           0        5.88       0.000
  T5                   STORAGE      0.000    0.655     0  01:58           0        2.84      20.907
  T4                   STORAGE      0.000    0.319     0  02:02           0        1.89      20.424
  T6                   STORAGE      0.000    1.238     0  02:04           0        6.62      12.088
  T3                   STORAGE      0.000    1.330     0  02:00           0        7.34      22.581
  T2                   STORAGE      0.000    0.946     0  01:58           0         3.8      29.820
  T1                   STORAGE      0.000    1.681     0  02:01           0        10.6       5.908
  
  
  **********************
  Node Surcharge Summary
  **********************
  
  Surcharging occurs when water rises above the top of the highest conduit.
  ---------------------------------------------------------------------
                                               Max. Height   Min. Depth
                                   Hours       Above Crown    Below Rim
  Node                 Type      Surcharged         Meters       Meters
  ---------------------------------------------------------------------
  CSO7                 JUNCTION        1.57          0.945        0.000
  CSO9                 JUNCTION        1.59          1.682        0.000
  CSO8                 JUNCTION        1.59          1.547        0.000
  CSO10                JUNCTION        1.03          0.560        0.000
  J4                   JUNCTION        1.54          1.249        0.451
  
  
  *********************
  Node Flooding Summary
  *********************
  
  Flooding refers to all water that overflows a node, whether it ponds or not.
  --------------------------------------------------------------------------
                                                             Total   Maximum
                                 Maximum   Time of Max       Flood    Ponded
                        Hours       Rate    Occurrence      Volume     Depth
  Node                 Flooded       CMS   days hr:min    10^6 ltr    Meters
  --------------------------------------------------------------------------
  CSO7                    1.22     0.104      0  02:02       0.214     0.000
  CSO9                    0.83     0.139      0  02:00       0.227     0.000
  CSO8                    0.87     0.618      0  01:59       1.019     0.000
  CSO10                   0.88     0.264      0  01:59       0.438     0.000
  T5                      5.86     0.655      0  01:58       1.851     0.000
  T4                      2.38     0.206      0  02:22       0.536     0.000
  T6                      3.12     1.162      0  02:04       3.779     0.000
  T3                      1.10     0.895      0  02:58       0.789     0.000
  T2                      2.11     0.758      0  02:09       1.302     0.000
  T1                      1.91     1.411      0  02:01       3.626     0.000
  
  
  **********************
  Storage Volume Summary
  **********************
  
  --------------------------------------------------------------------------------------------------
                         Average     Avg  Evap Exfil       Maximum     Max    Time of Max    Maximum
                          Volume    Pcnt  Pcnt  Pcnt        Volume    Pcnt     Occurrence    Outflow
  Storage Unit           1000 m3    Full  Loss  Loss       1000 m3    Full    days hr:min        CMS
  --------------------------------------------------------------------------------------------------
  T5                       0.397      79     0     0         0.500     100       0  01:58      0.000
  T4                       0.372      74     0     0         0.500     100       0  02:22      0.028
  T6                       0.466      78     0     0         0.600     100       0  01:56      0.075
  T3                       1.938      75     0     0         2.600     100       0  02:50      0.279
  T2                       0.760      76     0     0         1.000     100       0  02:09      0.033
  T1                       0.502      72     0     0         0.700     100       0  01:55      0.271
  
  
  ***********************
  Outfall Loading Summary
  ***********************
  
  -----------------------------------------------------------
                         Flow       Avg       Max       Total
                         Freq      Flow      Flow      Volume
  Outfall Node           Pcnt       CMS       CMS    10^6 ltr
  -----------------------------------------------------------
  Out_to_WWTP           99.01     0.211     0.271       5.879
  -----------------------------------------------------------
  System                99.01     0.211     0.271       5.879
  
  
  ********************
  Link Flow Summary
  ********************
  
  -----------------------------------------------------------------------------
                                 Maximum  Time of Max   Maximum    Max/    Max/
                                  |Flow|   Occurrence   |Veloc|    Full    Full
  Link                 Type          CMS  days hr:min     m/sec    Flow   Depth
  -----------------------------------------------------------------------------
  C1                   CONDUIT     0.000     0  00:00      0.00    0.00    0.06
  C6                   CONDUIT     0.073     0  02:02      1.29    1.16    0.82
  C2                   CONDUIT     0.028     0  03:11      1.00    0.03    0.16
  C9                   CONDUIT     0.127     0  02:27      1.31    0.43    0.59
  C16                  CONDUIT     0.488     0  01:42      1.81    0.05    0.16
  C3                   CONDUIT     0.124     0  02:58      1.88    0.05    0.14
  C19                  CONDUIT     0.033     0  03:13      0.64    0.01    0.25
  C11                  CONDUIT     0.152     0  03:16      1.56    0.01    0.14
  C20                  CONDUIT     1.385     0  01:58      3.69    0.04    0.18
  C22                  CONDUIT     0.202     0  02:12      1.67    0.09    0.38
  C12                  CONDUIT     0.075     0  03:43      0.41    0.01    0.29
  C17                  CONDUIT     1.275     0  01:58      3.37    0.06    0.32
  C10                  CONDUIT     1.238     0  02:04      1.65    0.13    0.62
  C13                  CONDUIT     1.330     0  02:00      1.69    0.08    0.76
  C18                  CONDUIT     0.946     0  01:58      1.72    0.04    0.56
  C23                  CONDUIT     1.681     0  02:01      1.68    0.19    0.65
  C4                   CONDUIT     0.655     0  01:58      1.97    0.16    0.63
  C7                   CONDUIT     0.319     0  02:02      1.41    0.08    0.59
  C14                  CONDUIT     0.271     0  01:57      2.08    0.02    0.09
  C5                   CONDUIT     0.077     0  01:36      1.51    1.32    1.00
  C8                   CONDUIT     0.127     0  02:27      1.76    1.60    0.86
  C15                  CONDUIT     0.487     0  02:26      3.43    1.55    0.83
  C21                  CONDUIT     0.202     0  02:12      1.83    1.16    0.69
  V4                   ORIFICE     0.028     0  02:23                      0.35
  V5                   ORIFICE     0.000     0  00:00                      0.00
  V1                   ORIFICE     0.271     0  01:55                      1.00
  V6                   ORIFICE     0.075     0  01:56                      0.43
  V3                   ORIFICE     0.124     0  02:50                      0.65
  V2                   ORIFICE     0.033     0  02:09                      0.24
  
  
  ***************************
  Flow Classification Summary
  ***************************
  
  -------------------------------------------------------------------------------------
                      Adjusted    ---------- Fraction of Time in Flow Class ---------- 
                       /Actual         Up    Down  Sub   Sup   Up    Down  Norm  Inlet 
  Conduit               Length    Dry  Dry   Dry   Crit  Crit  Crit  Crit  Ltd   Ctrl  
  -------------------------------------------------------------------------------------
  C1                      1.00   0.21  0.79  0.00  0.00  0.00  0.00  0.00  0.00  0.00
  C6                      1.00   0.00  0.00  0.00  0.22  0.78  0.00  0.00  0.00  0.00
  C2                      1.00   0.21  0.00  0.00  0.00  0.79  0.00  0.00  0.77  0.00
  C9                      1.00   0.00  0.00  0.00  1.00  0.00  0.00  0.00  1.00  0.00
  C16                     1.00   0.00  0.00  0.00  0.56  0.44  0.00  0.00  0.52  0.00
  C3                      1.00   0.21  0.00  0.00  0.00  0.79  0.00  0.00  0.00  0.00
  C19                     1.00   0.00  0.21  0.00  0.79  0.00  0.00  0.00  0.79  0.00
  C11                     1.00   0.00  0.21  0.00  0.20  0.58  0.00  0.00  0.79  0.00
  C20                     1.00   0.00  0.00  0.00  0.55  0.45  0.00  0.00  0.97  0.00
  C22                     1.00   0.00  0.00  0.00  0.78  0.22  0.00  0.00  1.00  0.00
  C12                     1.00   0.00  0.21  0.00  0.79  0.00  0.00  0.00  0.79  0.00
  C17                     1.00   0.00  0.00  0.00  0.69  0.31  0.00  0.00  0.91  0.00
  C10                     1.00   0.00  0.00  0.00  0.97  0.03  0.00  0.00  0.98  0.00
  C13                     1.00   0.00  0.00  0.00  0.85  0.15  0.00  0.00  0.21  0.00
  C18                     1.00   0.00  0.00  0.00  0.95  0.05  0.00  0.00  0.97  0.00
  C23                     1.00   0.00  0.00  0.00  0.83  0.17  0.00  0.00  0.94  0.00
  C4                      1.00   0.00  0.00  0.00  0.97  0.03  0.00  0.00  0.98  0.00
  C7                      1.00   0.00  0.00  0.00  0.95  0.05  0.00  0.00  0.97  0.00
  C14                     1.00   0.00  0.00  0.00  0.00  0.99  0.00  0.00  0.23  0.00
  C5                      1.00   0.00  0.00  0.00  0.92  0.08  0.00  0.00  0.78  0.00
  C8                      1.00   0.00  0.00  0.00  0.22  0.78  0.00  0.00  0.00  0.00
  C15                     1.00   0.00  0.00  0.00  0.00  1.00  0.00  0.00  0.00  0.00
  C21                     1.00   0.00  0.00  0.00  0.01  0.99  0.00  0.00  0.00  0.00
  
  
  *************************
  Conduit Surcharge Summary
  *************************
  
  ----------------------------------------------------------------------------
                                                           Hours        Hours 
                         --------- Hours Full --------   Above Full   Capacity
  Conduit                Both Ends  Upstream  Dnstream   Normal Flow   Limited
  ----------------------------------------------------------------------------
  C6                          0.01      1.54      0.01      1.44         0.01
  C10                         0.01      0.01      6.27      0.01         0.01
  C13                         0.01      0.01      5.94      0.01         0.01
  C18                         0.01      0.01      6.06      0.01         0.01
  C23                         0.01      0.01      6.25      0.01         0.01
  C4                          0.01      0.01      6.40      0.01         0.01
  C7                          0.01      0.01      6.22      0.01         0.01
  C5                          1.55      1.57      1.65      1.60         1.52
  C8                          0.01      1.59      0.01      1.59         0.01
  C15                         0.01      1.59      0.01      1.63         0.01
  C21                         0.01      1.03      0.01      1.01         0.01
  

  Analysis begun on:  Fri Sep  3 20:16:52 2021
  Analysis ended on:  Fri Sep  3 20:16:52 2021
  Total elapsed time: < 1 sec