
  EPA STORM WATER MANAGEMENT MODEL - VERSION 5.1 (Build 5.3.0.dev0)
  --------------------------------------------------------------

  
  *********************************************************
  NOTE: The summary statistics displayed in this report are
  based on results found at every computational time step,  
  not just on results from each reporting time step.
  *********************************************************
  
  ****************
  Analysis Options
  ****************
  Flow Units ............... CMS
  Process Models:
    Rainfall/Runoff ........ YES
    RDII ................... NO
    Snowmelt ............... NO
    Groundwater ............ NO
    Flow Routing ........... YES
    Ponding Allowed ........ YES
    Water Quality .......... NO
  Infiltration Method ...... HORTON
  Flow Routing Method ...... DYNWAVE
  Surcharge Method ......... EXTRAN
  Starting Date ............ 08/28/2015 08:00:00
  Ending Date .............. 08/28/2015 15:50:00
  Antecedent Dry Days ...... 0.0
  Report Time Step ......... 00:01:00
  Wet Time Step ............ 00:01:00
  Dry Time Step ............ 00:01:00
  Routing Time Step ........ 5.00 sec
  Variable Time Step ....... YES
  Maximum Trials ........... 8
  Number of Threads ........ 1
  Head Tolerance ........... 0.001500 m
  
  
  **************************        Volume         Depth
  Runoff Quantity Continuity     hectare-m            mm
  **************************     ---------       -------
  Total Precipitation ......         0.925         5.135
  Evaporation Loss .........         0.000         0.000
  Infiltration Loss ........         0.000         0.000
  Surface Runoff ...........         0.903         5.013
  Final Storage ............         0.022         0.122
  Continuity Error (%) .....        -0.011
  
  
  **************************        Volume        Volume
  Flow Routing Continuity        hectare-m      10^6 ltr
  **************************     ---------     ---------
  Dry Weather Inflow .......         0.396         3.955
  Wet Weather Inflow .......         0.903         9.034
  Groundwater Inflow .......         0.000         0.000
  RDII Inflow ..............         0.000         0.000
  External Inflow ..........         0.000         0.000
  External Outflow .........         0.506         5.063
  Flooding Loss ............         0.066         0.655
  Evaporation Loss .........         0.000         0.000
  Exfiltration Loss ........         0.000         0.000
  Initial Stored Volume ....         0.000         0.000
  Final Stored Volume ......         0.574         5.744
  Continuity Error (%) .....        11.758
  
  
  *************************
  Highest Continuity Errors
  *************************
  Node T5 (36.90%)
  Node T2 (33.60%)
  Node T6 (22.86%)
  Node T4 (22.48%)
  Node T3 (20.00%)
  
  
  ***************************
  Time-Step Critical Elements
  ***************************
  None
  
  
  ********************************
  Highest Flow Instability Indexes
  ********************************
  All links are stable.
  
  
  *************************
  Routing Time Step Summary
  *************************
  Minimum Time Step           :     4.50 sec
  Average Time Step           :     5.00 sec
  Maximum Time Step           :     5.00 sec
  Percent in Steady State     :     0.00
  Average Iterations per Step :     2.03
  Percent Not Converging      :     0.07
  
  
  ***************************
  Subcatchment Runoff Summary
  ***************************
  
  ------------------------------------------------------------------------------------------------------------------------------
                            Total      Total      Total      Total     Imperv       Perv      Total       Total     Peak  Runoff
                           Precip      Runon       Evap      Infil     Runoff     Runoff     Runoff      Runoff   Runoff   Coeff
  Subcatchment                 mm         mm         mm         mm         mm         mm         mm    10^6 ltr      CMS
  ------------------------------------------------------------------------------------------------------------------------------
  SC01                       5.14       0.00       0.00       0.00       5.05       0.00       5.05        1.67     0.48   0.984
  SC02                       5.14       0.00       0.00       0.00       5.05       0.00       5.05        1.15     0.32   0.983
  SC03                       5.14       0.00       0.00       0.00       5.07       0.00       5.07        0.91     0.29   0.987
  SC04                       5.14       0.00       0.00       0.00       4.96       0.00       4.96        0.34     0.07   0.965
  SC05                       5.14       0.00       0.00       0.00       5.05       0.00       5.05        0.79     0.22   0.983
  SC06                       5.14       0.00       0.00       0.00       4.91       0.00       4.91        1.60     0.30   0.957
  SC07                       5.14       0.00       0.00       0.00       4.96       0.00       4.96        0.24     0.05   0.965
  SC08                       5.14       0.00       0.00       0.00       5.02       0.00       5.02        1.41     0.36   0.978
  SC09                       5.14       0.00       0.00       0.00       5.00       0.00       5.00        0.35     0.08   0.974
  SC010                      5.14       0.00       0.00       0.00       5.03       0.00       5.03        0.59     0.15   0.979
  
  
  ******************
  Node Depth Summary
  ******************
  
  ---------------------------------------------------------------------------------
                                 Average  Maximum  Maximum  Time of Max    Reported
                                   Depth    Depth      HGL   Occurrence   Max Depth
  Node                 Type       Meters   Meters   Meters  days hr:min      Meters
  ---------------------------------------------------------------------------------
  J1                   JUNCTION     0.07     0.16    34.16     0  01:39        0.16
  J3                   JUNCTION     0.08     0.11    18.11     0  06:10        0.11
  CSO7                 JUNCTION     0.10     0.21    34.21     0  01:42        0.21
  J5                   JUNCTION     0.06     0.12    32.12     0  01:43        0.12
  CSO9                 JUNCTION     0.11     0.60    40.60     0  01:37        0.59
  J8                   JUNCTION     0.10     0.21    36.21     0  01:42        0.21
  CSO8                 JUNCTION     0.13     0.98    32.98     0  01:34        0.89
  J10                  JUNCTION     0.09     0.25    29.25     0  01:41        0.24
  J13                  JUNCTION     0.06     0.16    29.16     0  01:39        0.16
  J15                  JUNCTION     0.15     0.27    15.27     0  01:42        0.27
  J16                  JUNCTION     0.06     0.17    30.17     0  01:38        0.17
  CSO10                JUNCTION     0.11     0.36    30.36     0  01:41        0.36
  J12                  JUNCTION     0.13     0.26    26.26     0  01:43        0.26
  J4                   JUNCTION     0.12     0.24    33.24     0  01:44        0.24
  J6                   JUNCTION     0.05     0.07    25.07     0  05:06        0.07
  J2                   JUNCTION     0.00     0.00    25.00     0  00:00        0.00
  J19                  JUNCTION     0.13     0.17     8.17     0  03:25        0.17
  J9                   JUNCTION     0.08     0.11    29.11     0  04:11        0.11
  J14                  JUNCTION     0.10     0.14    20.14     0  07:01        0.14
  J17                  JUNCTION     0.05     0.07    20.07     0  04:59        0.07
  J7                   JUNCTION     0.08     0.18    39.18     0  01:42        0.18
  J11                  JUNCTION     0.09     0.26    31.26     0  01:42        0.26
  J18                  JUNCTION     0.05     0.14    29.14     0  01:42        0.14
  Out_to_WWTP          OUTFALL      0.13     0.17     6.17     0  03:25        0.17
  T5                   STORAGE      3.67     5.00    32.00     0  03:42        5.00
  T4                   STORAGE      2.35     3.33    30.33     0  05:04        3.33
  T6                   STORAGE      3.65     5.00    36.00     0  02:58        5.00
  T3                   STORAGE      2.18     3.13    25.13     0  06:47        3.13
  T2                   STORAGE      2.14     2.93    23.93     0  04:57        2.93
  T1                   STORAGE      2.69     4.42    14.42     0  03:25        4.42
  
  
  *******************
  Node Inflow Summary
  *******************
  
  -------------------------------------------------------------------------------------------------
                                  Maximum  Maximum                  Lateral       Total        Flow
                                  Lateral    Total  Time of Max      Inflow      Inflow     Balance
                                   Inflow   Inflow   Occurrence      Volume      Volume       Error
  Node                 Type           CMS      CMS  days hr:min    10^6 ltr    10^6 ltr     Percent
  -------------------------------------------------------------------------------------------------
  J1                   JUNCTION     0.237    0.237     0  01:38        1.35        1.35       0.047
  J3                   JUNCTION     0.000    0.120     0  06:07           0        2.46       1.189
  CSO7                 JUNCTION     0.058    0.058     0  01:42       0.526       0.526       0.089
  J5                   JUNCTION     0.075    0.129     0  01:42        0.47       0.991       0.155
  CSO9                 JUNCTION     0.088    0.088     0  01:42       0.541       0.541       0.074
  J8                   JUNCTION     0.326    0.411     0  01:42        2.54        3.08       0.175
  CSO8                 JUNCTION     0.368    0.368     0  01:41         1.7         1.7       0.026
  J10                  JUNCTION     0.301    0.648     0  01:39         1.3        2.99       0.158
  J13                  JUNCTION     0.336    0.336     0  01:38        1.62        1.62      -0.296
  J15                  JUNCTION     0.000    0.648     0  01:39           0         5.9       1.055
  J16                  JUNCTION     0.496    0.496     0  01:38        2.22        2.22      -0.026
  CSO10                JUNCTION     0.157    0.157     0  01:41        0.73        0.73       0.055
  J12                  JUNCTION     0.000    0.646     0  01:41           0        4.54       0.370
  J4                   JUNCTION     0.000    0.058     0  01:42           0       0.525       0.710
  J6                   JUNCTION     0.000    0.023     0  05:04           0       0.469       0.686
  J2                   JUNCTION     0.000    0.000     0  00:00           0           0       0.000 ltr
  J19                  JUNCTION     0.000    0.254     0  03:25           0        5.07       0.191
  J9                   JUNCTION     0.000    0.075     0  02:58           0        1.57       1.369
  J14                  JUNCTION     0.000    0.098     0  06:47           0           2       0.293
  J17                  JUNCTION     0.000    0.025     0  04:57           0       0.531       1.259
  J7                   JUNCTION     0.000    0.088     0  01:42           0       0.541       0.588
  J11                  JUNCTION     0.000    0.368     0  01:41           0         1.7       0.368
  J18                  JUNCTION     0.000    0.157     0  01:41           0       0.729       0.094
  Out_to_WWTP          OUTFALL      0.000    0.254     0  03:25           0        5.06       0.000
  T5                   STORAGE      0.000    0.237     0  01:39           0        1.35      58.473
  T4                   STORAGE      0.000    0.128     0  01:43           0        0.99      28.999
  T6                   STORAGE      0.000    0.405     0  01:43           0        3.07      29.631
  T3                   STORAGE      0.000    0.636     0  01:43           0        4.52      25.006
  T2                   STORAGE      0.000    0.336     0  01:39           0        1.62      50.592
  T1                   STORAGE      0.000    0.634     0  01:42           0        5.84       7.903
  
  
  **********************
  Node Surcharge Summary
  **********************
  
  Surcharging occurs when water rises above the top of the highest conduit.
  ---------------------------------------------------------------------
                                               Max. Height   Min. Depth
                                   Hours       Above Crown    Below Rim
  Node                 Type      Surcharged         Meters       Meters
  ---------------------------------------------------------------------
  CSO9                 JUNCTION        0.14          0.283        1.399
  CSO8                 JUNCTION        0.18          0.527        1.020
  
  
  *********************
  Node Flooding Summary
  *********************
  
  Flooding refers to all water that overflows a node, whether it ponds or not.
  --------------------------------------------------------------------------
                                                             Total   Maximum
                                 Maximum   Time of Max       Flood    Ponded
                        Hours       Rate    Occurrence      Volume     Depth
  Node                 Flooded       CMS   days hr:min    10^6 ltr    Meters
  --------------------------------------------------------------------------
  T5                      4.13     0.037      0  03:42       0.351     0.000
  T6                      1.80     0.151      0  03:01       0.304     0.000
  
  
  **********************
  Storage Volume Summary
  **********************
  
  --------------------------------------------------------------------------------------------------
                         Average     Avg  Evap Exfil       Maximum     Max    Time of Max    Maximum
                          Volume    Pcnt  Pcnt  Pcnt        Volume    Pcnt     Occurrence    Outflow
  Storage Unit           1000 m3    Full  Loss  Loss       1000 m3    Full    days hr:min        CMS
  --------------------------------------------------------------------------------------------------
  T5                       0.367      73     0     0         0.500     100       0  03:42      0.000
  T4                       0.235      47     0     0         0.333      67       0  05:04      0.023
  T6                       0.439      73     0     0         0.600     100       0  02:58      0.075
  T3                       1.136      44     0     0         1.628      63       0  06:47      0.098
  T2                       0.429      43     0     0         0.586      59       0  04:57      0.025
  T1                       0.377      54     0     0         0.619      88       0  03:25      0.254
  
  
  ***********************
  Outfall Loading Summary
  ***********************
  
  -----------------------------------------------------------
                         Flow       Avg       Max       Total
                         Freq      Flow      Flow      Volume
  Outfall Node           Pcnt       CMS       CMS    10^6 ltr
  -----------------------------------------------------------
  Out_to_WWTP           99.01     0.181     0.254       5.063
  -----------------------------------------------------------
  System                99.01     0.181     0.254       5.063
  
  
  ********************
  Link Flow Summary
  ********************
  
  -----------------------------------------------------------------------------
                                 Maximum  Time of Max   Maximum    Max/    Max/
                                  |Flow|   Occurrence   |Veloc|    Full    Full
  Link                 Type          CMS  days hr:min     m/sec    Flow   Depth
  -----------------------------------------------------------------------------
  C1                   CONDUIT     0.000     0  00:00      0.00    0.00    0.06
  C6                   CONDUIT     0.055     0  01:44      1.26    0.88    0.60
  C2                   CONDUIT     0.023     0  05:06      0.95    0.03    0.15
  C9                   CONDUIT     0.085     0  01:42      1.19    0.29    0.39
  C16                  CONDUIT     0.366     0  01:42      1.60    0.04    0.13
  C3                   CONDUIT     0.098     0  06:48      1.75    0.04    0.12
  C19                  CONDUIT     0.025     0  04:59      0.58    0.01    0.14
  C11                  CONDUIT     0.120     0  06:10      1.46    0.01    0.08
  C20                  CONDUIT     0.496     0  01:38      2.79    0.02    0.11
  C22                  CONDUIT     0.156     0  01:42      1.52    0.07    0.26
  C12                  CONDUIT     0.075     0  04:11      1.09    0.01    0.08
  C17                  CONDUIT     0.645     0  01:41      2.81    0.03    0.13
  C10                  CONDUIT     0.405     0  01:43      1.65    0.04    0.57
  C13                  CONDUIT     0.636     0  01:43      1.40    0.04    0.55
  C18                  CONDUIT     0.336     0  01:39      1.72    0.01    0.52
  C23                  CONDUIT     0.634     0  01:42      1.47    0.07    0.59
  C4                   CONDUIT     0.237     0  01:39      1.97    0.06    0.58
  C7                   CONDUIT     0.128     0  01:43      1.41    0.03    0.56
  C14                  CONDUIT     0.254     0  03:25      2.04    0.01    0.08
  C5                   CONDUIT     0.058     0  01:42      1.23    0.99    0.87
  C8                   CONDUIT     0.088     0  01:42      1.34    1.11    0.79
  C15                  CONDUIT     0.368     0  01:41      2.72    1.17    0.78
  C21                  CONDUIT     0.157     0  01:41      1.75    0.90    0.57
  V4                   ORIFICE     0.023     0  05:04                      0.35
  V5                   ORIFICE     0.000     0  00:00                      0.00
  V1                   ORIFICE     0.254     0  03:25                      1.00
  V6                   ORIFICE     0.075     0  02:58                      0.43
  V3                   ORIFICE     0.098     0  06:47                      0.65
  V2                   ORIFICE     0.025     0  04:57                      0.24
  
  
  ***************************
  Flow Classification Summary
  ***************************
  
  -------------------------------------------------------------------------------------
                      Adjusted    ---------- Fraction of Time in Flow Class ---------- 
                       /Actual         Up    Down  Sub   Sup   Up    Down  Norm  Inlet 
  Conduit               Length    Dry  Dry   Dry   Crit  Crit  Crit  Crit  Ltd   Ctrl  
  -------------------------------------------------------------------------------------
  C1                      1.00   0.21  0.79  0.00  0.00  0.00  0.00  0.00  0.00  0.00
  C6                      1.00   0.00  0.00  0.00  0.01  0.99  0.00  0.00  0.00  0.00
  C2                      1.00   0.21  0.00  0.00  0.00  0.79  0.00  0.00  0.77  0.00
  C9                      1.00   0.00  0.00  0.00  1.00  0.00  0.00  0.00  1.00  0.00
  C16                     1.00   0.00  0.00  0.00  0.60  0.40  0.00  0.00  0.50  0.00
  C3                      1.00   0.21  0.00  0.00  0.00  0.79  0.00  0.00  0.00  0.00
  C19                     1.00   0.00  0.21  0.00  0.79  0.00  0.00  0.00  0.79  0.00
  C11                     1.00   0.00  0.21  0.00  0.19  0.60  0.00  0.00  0.79  0.00
  C20                     1.00   0.00  0.00  0.00  0.56  0.44  0.00  0.00  0.98  0.00
  C22                     1.00   0.00  0.00  0.00  0.83  0.17  0.00  0.00  1.00  0.00
  C12                     1.00   0.00  0.21  0.00  0.25  0.54  0.00  0.00  0.74  0.00
  C17                     1.00   0.00  0.00  0.00  0.42  0.58  0.00  0.00  0.90  0.00
  C10                     1.00   0.00  0.00  0.00  0.97  0.03  0.00  0.00  0.98  0.00
  C13                     1.00   0.00  0.00  0.00  0.85  0.15  0.00  0.00  0.91  0.00
  C18                     1.00   0.00  0.00  0.00  0.95  0.05  0.00  0.00  0.97  0.00
  C23                     1.00   0.00  0.00  0.00  0.82  0.18  0.00  0.00  0.94  0.00
  C4                      1.00   0.00  0.00  0.00  0.97  0.03  0.00  0.00  0.98  0.00
  C7                      1.00   0.00  0.00  0.00  0.95  0.05  0.00  0.00  0.97  0.00
  C14                     1.00   0.00  0.00  0.00  0.00  0.99  0.00  0.00  0.36  0.00
  C5                      1.00   0.00  0.00  0.00  0.91  0.09  0.00  0.00  0.98  0.00
  C8                      1.00   0.00  0.00  0.00  0.05  0.95  0.00  0.00  0.00  0.00
  C15                     1.00   0.00  0.00  0.00  0.00  1.00  0.00  0.00  0.00  0.00
  C21                     1.00   0.00  0.00  0.00  0.00  1.00  0.00  0.00  0.00  0.00
  
  
  *************************
  Conduit Surcharge Summary
  *************************
  
  ----------------------------------------------------------------------------
                                                           Hours        Hours 
                         --------- Hours Full --------   Above Full   Capacity
  Conduit                Both Ends  Upstream  Dnstream   Normal Flow   Limited
  ----------------------------------------------------------------------------
  C10                         0.01      0.01      6.17      0.01         0.01
  C13                         0.01      0.01      5.28      0.01         0.01
  C18                         0.01      0.01      5.49      0.01         0.01
  C23                         0.01      0.01      6.12      0.01         0.01
  C4                          0.01      0.01      6.30      0.01         0.01
  C7                          0.01      0.01      6.10      0.01         0.01
  C8                          0.01      0.14      0.01      0.14         0.01
  C15                         0.01      0.18      0.01      0.23         0.01
  

  Analysis begun on:  Fri Sep  3 20:17:10 2021
  Analysis ended on:  Fri Sep  3 20:17:10 2021
  Total elapsed time: < 1 sec