
  EPA STORM WATER MANAGEMENT MODEL - VERSION 5.1 (Build 5.3.0.dev0)
  --------------------------------------------------------------

  WARNING 04: minimum elevation drop used for Conduit WS02004404WS02004405
  WARNING 03: negative offset ignored for Link YS02001904YS02001907
  
  *********************************************************
  NOTE: The summary statistics displayed in this report are
  based on results found at every computational time step,  
  not just on results from each reporting time step.
  *********************************************************
  
  ****************
  Analysis Options
  ****************
  Flow Units ............... LPS
  Process Models:
    Rainfall/Runoff ........ YES
    RDII ................... NO
    Snowmelt ............... NO
    Groundwater ............ NO
    Flow Routing ........... YES
    Ponding Allowed ........ NO
    Water Quality .......... YES
  Infiltration Method ...... HORTON
  Flow Routing Method ...... DYNWAVE
  Surcharge Method ......... EXTRAN
  Starting Date ............ 08/28/2015 08:00:00
  Ending Date .............. 08/28/2015 15:50:00
  Antecedent Dry Days ...... 8.0
  Report Time Step ......... 00:01:00
  Wet Time Step ............ 00:01:00
  Dry Time Step ............ 00:01:00
  Routing Time Step ........ 5.00 sec
  Variable Time Step ....... YES
  Maximum Trials ........... 8
  Number of Threads ........ 4
  Head Tolerance ........... 0.001500 m
  
  
  **************************        Volume         Depth
  Runoff Quantity Continuity     hectare-m            mm
  **************************     ---------       -------
  Total Precipitation ......         1.814         3.973
  Evaporation Loss .........         0.000         0.000
  Infiltration Loss ........         0.436         0.954
  Surface Runoff ...........         0.971         2.125
  Final Storage ............         0.409         0.894
  Continuity Error (%) .....        -0.022
  
  
  **************************           COD            SS            TN            TP         NH4-N
  Runoff Quality Continuity             kg            kg            kg            kg            kg
  **************************    ----------    ----------    ----------    ----------    ----------
  Initial Buildup ..........     41378.656     70582.865      1804.177       168.684      1032.807
  Surface Buildup ..........        10.668        11.658         2.479         0.231         1.471
  Wet Deposition ...........         0.000         0.000         0.000         0.000         0.000
  Sweeping Removal .........         0.000         0.000         0.000         0.000         0.000
  Infiltration Loss ........        15.642        25.722         0.329         0.021         0.153
  BMP Removal ..............         0.000         0.000         0.000         0.000         0.000
  Surface Runoff ...........       445.338       713.986         9.462         0.595         4.439
  Remaining Buildup ........     40928.221     69854.620      1796.861       168.298      1029.685
  Continuity Error (%) .....         0.000         0.000         0.000         0.000         0.000
  
  
  **************************        Volume        Volume
  Flow Routing Continuity        hectare-m      10^6 ltr
  **************************     ---------     ---------
  Dry Weather Inflow .......         0.616         6.165
  Wet Weather Inflow .......         0.970         9.702
  Groundwater Inflow .......         0.000         0.000
  RDII Inflow ..............         0.000         0.000
  External Inflow ..........         0.102         1.024
  External Outflow .........         1.057        10.567
  Flooding Loss ............         0.073         0.729
  Evaporation Loss .........         0.000         0.000
  Exfiltration Loss ........         0.000         0.000
  Initial Stored Volume ....         0.076         0.761
  Final Stored Volume ......         0.629         6.294
  Continuity Error (%) .....         0.346
  
  
  **************************           COD            SS            TN            TP         NH4-N
  Quality Routing Continuity            kg            kg            kg            kg            kg
  **************************    ----------    ----------    ----------    ----------    ----------
  Dry Weather Inflow .......      1541.201      2465.922       147.955        18.494        92.472
  Wet Weather Inflow .......       445.181       713.755         9.458         0.594         4.437
  Groundwater Inflow .......         0.000         0.000         0.000         0.000         0.000
  RDII Inflow ..............         0.000         0.000         0.000         0.000         0.000
  External Inflow ..........       183.418       293.469        17.608         2.201        11.005
  External Outflow .........      1628.751      2614.638       143.223        17.677        88.932
  Flooding Loss ............        37.026        58.214         1.174         0.105         0.633
  Exfiltration Loss ........         0.000         0.000         0.000         0.000         0.000
  Mass Reacted .............         0.000         0.000         0.000         0.000         0.000
  Initial Stored Mass ......         0.000         0.000         0.000         0.000         0.000
  Final Stored Mass ........       494.032       784.645        30.090         3.449        18.037
  Continuity Error (%) .....         0.461         0.451         0.306         0.271         0.290
  
  
  *************************
  Highest Continuity Errors
  *************************
  Node YS02001774 (41.47%)
  Node HS02004842 (29.38%)
  Node YS02001884 (27.46%)
  Node YSB1171 (8.09%)
  Node YS02001625 (7.17%)
  
  
  ***************************
  Time-Step Critical Elements
  ***************************
  Link WS02006238WS02006235 (38.15%)
  Link WS02006280WS02006229 (36.29%)
  Link WS02003066WSF200 (9.18%)
  Link YS02001649YS02001757 (1.01%)
  
  
  ********************************
  Highest Flow Instability Indexes
  ********************************
  Link WS02006113WS02006111 (52)
  Link WS02006256WS02006235 (15)
  Link YS02001629YS02163301 (12)
  Link YS02163601YS02164001 (11)
  Link YS02164001YS02001641 (11)
  
  
  *************************
  Routing Time Step Summary
  *************************
  Minimum Time Step           :     0.94 sec
  Average Time Step           :     3.35 sec
  Maximum Time Step           :     5.00 sec
  Percent in Steady State     :     0.00
  Average Iterations per Step :     2.49
  Percent Not Converging      :     3.52
  
  
  ***************************
  Subcatchment Runoff Summary
  ***************************
  
  ------------------------------------------------------------------------------------------------------------------------------
                            Total      Total      Total      Total     Imperv       Perv      Total       Total     Peak  Runoff
                           Precip      Runon       Evap      Infil     Runoff     Runoff     Runoff      Runoff   Runoff   Coeff
  Subcatchment                 mm         mm         mm         mm         mm         mm         mm    10^6 ltr      LPS
  ------------------------------------------------------------------------------------------------------------------------------
  sub0                       3.97       0.00       0.00       0.28       3.65       0.00       3.65        0.00     0.67   0.919
  sub1                       3.97       0.00       0.00       0.44       3.45       0.00       3.45        0.02     3.71   0.868
  sub2                       3.97       0.00       0.00       1.47       2.42       0.00       2.42        0.02     3.31   0.610
  sub3                       3.97       0.00       0.00       1.47       2.39       0.00       2.39        0.05     6.93   0.602
  sub4                       3.97       0.00       0.00       0.44       3.32       0.00       3.32        0.07     8.19   0.835
  sub5                       3.97       0.00       0.00       0.28       3.60       0.00       3.60        0.04     6.59   0.907
  sub7                       3.97       0.00       0.00       0.36       3.55       0.00       3.55        0.01     2.29   0.895
  sub8                       3.97       0.00       0.00       0.36       3.55       0.00       3.55        0.02     4.06   0.892
  sub9                       3.97       0.00       0.00       0.36       3.54       0.00       3.54        0.02     3.01   0.892
  sub10                      3.97       0.00       0.00       0.32       3.57       0.00       3.57        0.04     6.56   0.899
  sub11                      3.97       0.00       0.00       0.32       3.59       0.00       3.59        0.04     7.62   0.903
  sub12                      3.97       0.00       0.00       0.52       3.41       0.00       3.41        0.03     6.32   0.858
  sub14                      3.97       0.00       0.00       0.36       3.54       0.00       3.54        0.03     5.90   0.891
  sub15                      3.97       0.00       0.00       1.19       2.72       0.00       2.72        0.05     8.02   0.685
  sub16                      3.97       0.00       0.00       1.31       2.62       0.00       2.62        0.03     5.59   0.660
  sub17                      3.97       0.00       0.00       1.27       2.66       0.00       2.66        0.02     4.54   0.669
  sub22                      3.97       0.00       0.00       1.71       2.22       0.00       2.22        0.14    26.04   0.560
  sub23                      3.97       0.00       0.00       1.47       2.46       0.00       2.46        0.12    22.12   0.619
  sub60                      3.97       0.00       0.00       0.48       2.32       0.00       2.32        0.70    58.36   0.585
  sub61                      3.97       0.00       0.00       0.68       2.51       0.00       2.51        0.77    71.76   0.631
  sub62                      3.97       0.00       0.00       0.32       2.68       0.00       2.68        0.82    74.03   0.675
  sub63                      3.97       0.00       0.00       1.15       2.24       0.00       2.24        0.68    65.77   0.564
  sub64                      3.97       0.00       0.00       0.60       2.22       0.00       2.22        0.68    55.45   0.559
  sub65                      3.97       0.00       0.00       0.52       2.25       0.00       2.25        0.69    56.28   0.566
  sub66                      3.97       0.00       0.00       1.15       1.94       0.00       1.94        0.60    50.71   0.489
  sub67                      3.97       0.00       0.00       0.32       2.97       0.00       2.97        0.92    91.17   0.748
  sub68                      3.97       0.00       0.00       0.56       2.67       0.00       2.67        0.82    78.48   0.673
  sub69                      3.97       0.00       0.00       0.60       2.91       0.00       2.91        0.68    72.21   0.731
  sub70                      3.97       2.97       0.00       2.36       3.51       0.00       3.51        0.80    64.50   0.506
  sub71                      3.97       0.00       0.00       0.32       2.56       0.00       2.56        0.60    52.05   0.644
  sub72                      3.97       0.00       0.00       0.28       1.77       0.00       1.77        0.36    24.82   0.446
  1                          3.97       3.42       0.00       1.37       3.54       0.35       3.88        0.91    61.18   0.526
  2                          3.97       0.00       0.00       2.89       0.88       0.09       0.96        0.39    42.63   0.243
  
  
  ****************************
  Subcatchment Washoff Summary
  ****************************
  
  ------------------------------------------------------------------------------------------
                                 COD            SS            TN            TP         NH4-N
  Subcatchment                    kg            kg            kg            kg            kg
  ------------------------------------------------------------------------------------------
  sub0                         0.412         0.711         0.007         0.001         0.003
  sub1                         1.723         3.014         0.034         0.002         0.016
  sub2                         1.002         1.692         0.024         0.002         0.011
  sub3                         2.419         4.030         0.057         0.004         0.026
  sub4                         3.917         6.827         0.085         0.005         0.041
  sub5                         3.889         6.706         0.069         0.005         0.033
  sub7                         0.925         1.654         0.018         0.001         0.009
  sub8                         1.431         2.610         0.031         0.002         0.015
  sub9                         1.193         2.146         0.025         0.001         0.012
  sub10                        3.278         5.737         0.062         0.004         0.030
  sub11                        3.297         5.861         0.064         0.004         0.031
  sub12                        2.715         4.747         0.050         0.004         0.024
  sub14                        2.505         4.459         0.050         0.003         0.024
  sub15                        2.872         4.864         0.060         0.004         0.027
  sub16                        1.825         3.096         0.037         0.003         0.017
  sub17                        1.649         2.766         0.032         0.002         0.015
  sub22                        8.379        13.877         0.173         0.012         0.078
  sub23                        5.385         9.297         0.130         0.008         0.058
  sub60                       29.231        46.684         0.654         0.036         0.312
  sub61                       36.934        58.663         0.745         0.047         0.357
  sub62                       39.405        63.838         0.852         0.049         0.407
  sub63                       27.902        43.853         0.640         0.042         0.289
  sub64                       33.792        51.897         0.673         0.046         0.317
  sub65                       34.703        53.542         0.698         0.046         0.330
  sub66                       20.991        32.684         0.499         0.030         0.228
  sub67                       58.194        93.284         1.088         0.075         0.522
  sub68                       41.898        67.395         0.881         0.055         0.416
  sub69                       39.248        63.964         0.794         0.052         0.375
  sub70                       57.659        94.363         1.283         0.083         0.586
  sub71                       26.321        43.015         0.613         0.032         0.292
  sub72                       16.024        24.173         0.329         0.021         0.157
  1                           26.636        43.898         0.622         0.040         0.278
  2                            4.490         6.967         0.161         0.009         0.066
  ------------------------------------------------------------------------------------------
  System                     542.245       872.313        11.539         0.729         5.400
  
  
  ******************
  Node Depth Summary
  ******************
  
  ---------------------------------------------------------------------------------
                                 Average  Maximum  Maximum  Time of Max    Reported
                                   Depth    Depth      HGL   Occurrence   Max Depth
  Node                 Type       Meters   Meters   Meters  days hr:min      Meters
  ---------------------------------------------------------------------------------
  WS02001211           JUNCTION     0.66     0.70     5.54     0  03:25        0.70
  WS02001212           JUNCTION     0.37     0.42     5.48     0  03:24        0.42
  WS02001213           JUNCTION     0.57     0.66     5.42     0  03:23        0.66
  WS02003069           JUNCTION     0.35     0.47     5.05     0  03:22        0.47
  WS02003072           JUNCTION     0.42     0.54     4.91     0  03:23        0.54
  WS02003073           JUNCTION     0.25     0.32     4.39     0  03:23        0.32
  WS02003060           JUNCTION     0.32     0.42     5.35     0  03:22        0.42
  WS02003066           JUNCTION     0.15     0.25     5.80     0  03:20        0.25
  WS02003059           JUNCTION     0.63     0.71     5.40     0  03:23        0.71
  WS02003067           JUNCTION     0.39     0.61     5.93     0  03:20        0.61
  WS02004401           JUNCTION     0.46     0.70     6.70     0  03:15        0.70
  WS02004402           JUNCTION     0.49     0.73     6.69     0  03:15        0.73
  WS02004403           JUNCTION     0.51     0.75     6.68     0  03:16        0.75
  WS02004404           JUNCTION     0.59     0.83     6.68     0  03:16        0.83
  WS02004406           JUNCTION     0.60     0.84     6.67     0  03:15        0.84
  WS02004409           JUNCTION     0.28     0.52     6.29     0  03:18        0.52
  WS02004410           JUNCTION     0.30     0.54     6.26     0  03:19        0.54
  WS02004411           JUNCTION     0.32     0.55     6.23     0  03:19        0.55
  WS02004412           JUNCTION     0.34     0.57     6.21     0  03:19        0.57
  WS02004413           JUNCTION     0.48     0.74     6.21     0  03:20        0.74
  WS02004405           JUNCTION     0.58     0.82     6.67     0  03:15        0.82
  WS02006109           JUNCTION     0.54     0.77     7.39     0  02:08        0.77
  WS02006110           JUNCTION     0.56     0.77     7.35     0  02:08        0.77
  WS02006111           JUNCTION     0.14     0.23     6.94     0  02:08        0.23
  WS02006112           JUNCTION     0.61     0.87     6.75     0  03:14        0.87
  WS02006113           JUNCTION     0.20     0.35     7.25     0  02:08        0.35
  WS02006115           JUNCTION     0.35     0.58     6.72     0  03:15        0.58
  WS02006116           JUNCTION     0.43     0.67     6.71     0  03:15        0.67
  WS02006230           JUNCTION     0.44     0.72     7.46     0  03:10        0.72
  WS02006231           JUNCTION     0.24     0.46     7.58     0  03:11        0.46
  WS02006232           JUNCTION     0.34     0.60     7.63     0  03:13        0.60
  WS02006234           JUNCTION     0.25     0.50     7.66     0  03:13        0.50
  WS02006235           JUNCTION     0.27     0.53     7.70     0  03:14        0.53
  WS02006238           JUNCTION     0.29     0.55     7.70     0  03:14        0.55
  WS02006240           JUNCTION     0.18     0.40     7.70     0  03:14        0.40
  WS02006242           JUNCTION     0.21     0.43     7.70     0  03:14        0.43
  WS02006243           JUNCTION     0.11     0.28     7.70     0  03:14        0.28
  WS02006245           JUNCTION     0.09     0.21     7.70     0  03:12        0.21
  WS02006247           JUNCTION     0.09     0.20     7.70     0  03:13        0.20
  WS02006248           JUNCTION     0.05     0.11     7.70     0  03:12        0.11
  WS02006249           JUNCTION     0.07     0.14     7.74     0  01:50        0.14
  WS02006239           JUNCTION     0.24     0.49     7.70     0  03:14        0.49
  WS02006251           JUNCTION     0.05     0.11     7.78     0  01:48        0.11
  WS02006252           JUNCTION     0.00     0.00     8.24     0  00:00        0.00
  WS02006253           JUNCTION     0.09     0.17     7.81     0  01:48        0.17
  WS02006256           JUNCTION     1.11     2.35     9.28     0  01:57        2.35
  WS02004138           JUNCTION     0.15     0.17     7.42     0  05:51        0.17
  WS02004139           JUNCTION     0.60     0.64     5.55     0  03:25        0.64
  WS02004407           JUNCTION     0.13     0.23     6.55     0  03:16        0.23
  WS02006228           JUNCTION     0.52     0.76     7.41     0  02:07        0.76
  WS02006229           JUNCTION     0.48     0.73     7.43     0  02:07        0.73
  WS02006280           JUNCTION     0.05     0.11     8.38     0  01:48        0.11
  WS02006284           JUNCTION     0.34     0.43     8.82     0  01:48        0.43
  WS02006287           JUNCTION     0.08     0.15     9.11     0  01:47        0.15
  WSF200               JUNCTION     0.12     0.23     5.46     0  03:19        0.23
  HS02004901           JUNCTION     0.11     0.18    10.00     0  01:46        0.18
  HS02004881           JUNCTION     0.01     0.02     9.04     0  01:47        0.02
  HS02004876           JUNCTION     0.04     0.08     9.11     0  01:47        0.08
  HS02004870           JUNCTION     0.01     0.03     9.31     0  01:47        0.03
  HS02004862           JUNCTION     0.01     0.03     9.41     0  01:50        0.03
  HS02004856           JUNCTION     0.07     0.09     9.52     0  01:48        0.09
  HS02004852           JUNCTION     0.01     0.02     9.53     0  01:50        0.02
  HS02004848           JUNCTION     0.01     0.02     9.62     0  01:48        0.02
  HS02004842           JUNCTION     0.32     0.35     9.62     0  01:48        0.35
  HS02004837           JUNCTION     0.03     0.04     9.62     0  01:48        0.04
  HS02004830           JUNCTION     0.04     0.05     9.52     0  01:48        0.05
  HS02004824           JUNCTION     0.02     0.03     9.43     0  01:54        0.03
  HS02004817           JUNCTION     0.41     0.48     9.33     0  01:48        0.48
  HS02004807           JUNCTION     0.11     0.16     9.33     0  01:48        0.16
  HS02004802           JUNCTION     0.14     0.20     9.32     0  01:48        0.20
  HS02004799           JUNCTION     0.10     0.19     9.40     0  01:45        0.19
  HS02004792           JUNCTION     0.02     0.06     9.59     0  01:44        0.06
  HS02004788           JUNCTION     0.02     0.05     9.95     0  01:46        0.05
  HS02004785           JUNCTION     0.04     0.09     9.99     0  01:46        0.09
  HS02004777           JUNCTION     0.13     0.20    10.00     0  01:46        0.20
  HS02004770           JUNCTION     0.10     0.17    10.00     0  01:45        0.17
  HS02004480           JUNCTION     0.06     0.14     9.38     0  01:46        0.14
  HS02004479           JUNCTION     0.10     0.18     9.38     0  01:46        0.18
  HS02004478           JUNCTION     0.05     0.09     9.32     0  01:47        0.09
  YS02001745           JUNCTION     0.33     0.84     8.36     0  07:02        0.84
  YS02001748           JUNCTION     0.61     1.28     8.36     0  07:02        1.28
  YS02001751           JUNCTION     0.76     1.48     8.36     0  07:02        1.48
  YS02001754           JUNCTION     0.99     1.75     8.36     0  07:02        1.75
  YS02001762           JUNCTION     1.17     1.96     8.36     0  07:02        1.96
  YS02001765           JUNCTION     1.13     1.91     8.36     0  07:02        1.91
  YS02001767           JUNCTION     1.09     1.87     8.36     0  07:02        1.87
  YS02001770           JUNCTION     1.09     1.86     8.36     0  07:02        1.86
  YS02001774           JUNCTION     1.15     1.94     8.36     0  07:02        1.94
  YS02001779           JUNCTION     0.92     1.67     8.36     0  07:02        1.67
  YS02001882           JUNCTION     0.24     0.38     7.10     0  03:04        0.38
  YS02001884           JUNCTION     0.33     0.48     7.10     0  03:04        0.48
  YS02001759           JUNCTION     1.20     1.99     8.36     0  07:02        1.99
  YS02001887           JUNCTION     0.41     0.56     7.10     0  03:04        0.56
  YS02001890           JUNCTION     0.44     0.59     7.10     0  03:04        0.59
  YS02001898           JUNCTION     0.21     0.35     7.08     0  03:05        0.35
  YS02001901           JUNCTION     0.32     0.47     7.08     0  03:05        0.47
  YS02001904           JUNCTION     0.30     0.45     7.08     0  03:05        0.45
  YS02001907           JUNCTION     0.62     0.79     7.08     0  03:05        0.79
  YS02001910           JUNCTION     0.42     0.58     7.08     0  03:05        0.58
  YS02001915           JUNCTION     0.23     0.36     7.08     0  03:05        0.36
  YS02001918           JUNCTION     0.07     0.09     7.15     0  03:05        0.09
  YS02001619           JUNCTION     0.73     1.42     8.35     0  06:52        1.42
  YS02001629           JUNCTION     1.04     1.80     8.35     0  06:52        1.80
  YS02001641           JUNCTION     1.14     1.92     8.35     0  06:52        1.92
  YS02001644           JUNCTION     1.14     1.92     8.35     0  06:51        1.92
  YS02001652           JUNCTION     1.00     1.76     8.36     0  07:02        1.76
  YS02001655           JUNCTION     0.79     1.51     8.36     0  07:02        1.51
  YS02001920           JUNCTION     0.16     0.19     7.20     0  03:04        0.19
  YS02001923           JUNCTION     0.05     0.07     7.33     0  03:03        0.07
  YS02001926           JUNCTION     0.12     0.16     7.60     0  03:03        0.16
  YS02001929           JUNCTION     0.05     0.08     7.77     0  03:01        0.08
  YS02001658           JUNCTION     0.56     1.21     8.36     0  07:02        1.21
  YS02001661           JUNCTION     0.42     0.95     8.36     0  07:02        0.95
  YS02001664           JUNCTION     0.15     0.43     8.36     0  07:02        0.43
  YS02001622           JUNCTION     0.74     1.45     8.35     0  06:52        1.45
  YS02001633           JUNCTION     1.13     1.90     8.35     0  06:52        1.90
  YS02001649           JUNCTION     1.18     1.97     8.36     0  07:02        1.97
  YS02001757           JUNCTION     1.30     2.10     8.36     0  07:02        2.10
  YS02001895           JUNCTION     0.21     0.35     7.09     0  03:05        0.35
  YS02001625           JUNCTION     1.01     1.75     8.35     0  06:52        1.75
  YS02163301           JUNCTION     1.07     1.84     8.35     0  06:52        1.84
  YS02163601           JUNCTION     1.18     1.95     8.35     0  06:52        1.95
  YS02164001           JUNCTION     1.12     1.89     8.35     0  06:52        1.89
  YS02001647           JUNCTION     0.98     1.74     8.35     0  07:02        1.74
  YSB1154              JUNCTION     0.23     0.32     9.38     0  01:46        0.32
  YSB6556              JUNCTION     0.13     0.21     9.38     0  01:46        0.21
  YSB1174              JUNCTION     0.18     0.27     9.38     0  01:45        0.27
  YSB1171              JUNCTION     0.38     0.48     9.38     0  01:46        0.48
  YS02006553           JUNCTION     0.63     0.80     7.08     0  03:05        0.80
  YS02006561           JUNCTION     0.12     0.19     6.85     0  03:05        0.19
  YS02006556           JUNCTION     0.60     0.77     7.08     0  03:05        0.77
  YS02006558           JUNCTION     0.64     0.81     7.08     0  03:05        0.81
  YS02001783           JUNCTION     0.20     0.34     6.48     0  03:05        0.34
  YS02001784           JUNCTION     0.23     0.37     6.44     0  03:06        0.37
  YS02001786           JUNCTION     0.20     0.31     6.34     0  03:06        0.31
  YS02001788           JUNCTION     0.14     0.23     6.21     0  03:06        0.23
  YS02001790           JUNCTION     0.17     0.28     5.93     0  03:06        0.28
  YS02001791           JUNCTION     0.11     0.19     5.66     0  03:07        0.19
  YS02001793           JUNCTION     0.14     0.61     5.44     0  03:23        0.56
  WSC                  OUTFALL      0.25     0.32     0.99     0  03:24        0.32
  JK-storage           STORAGE      3.79     4.59     5.39     0  03:23        4.59
  CC-storage           STORAGE      0.64     1.36     8.36     0  07:00        1.36
  XR-storage           STORAGE      6.57     7.00     5.00     0  04:42        7.00
  
  
  *******************
  Node Inflow Summary
  *******************
  
  -------------------------------------------------------------------------------------------------
                                  Maximum  Maximum                  Lateral       Total        Flow
                                  Lateral    Total  Time of Max      Inflow      Inflow     Balance
                                   Inflow   Inflow   Occurrence      Volume      Volume       Error
  Node                 Type           LPS      LPS  days hr:min    10^6 ltr    10^6 ltr     Percent
  -------------------------------------------------------------------------------------------------
  WS02001211           JUNCTION      7.35   294.55     0  05:52       0.207        6.89       0.464
  WS02001212           JUNCTION      0.00   295.06     0  03:31           0        6.86       0.237
  WS02001213           JUNCTION      0.00   296.37     0  03:31           0        6.84       0.257
  WS02003069           JUNCTION      0.32   645.29     0  03:22     0.00902        10.6       0.160
  WS02003072           JUNCTION      0.00   645.27     0  03:22           0        10.6       0.217
  WS02003073           JUNCTION      1.82   647.06     0  03:23      0.0514        10.6       0.233
  WS02003060           JUNCTION     16.53   644.96     0  03:21       0.466        10.6       0.154
  WS02003066           JUNCTION      0.00   337.19     0  03:20           0        3.33       0.059
  WS02003059           JUNCTION      0.00   298.88     0  03:31           0        6.83       0.471
  WS02003067           JUNCTION      0.00   337.18     0  03:20           0        3.34       0.153
  WS02004401           JUNCTION      0.00   339.88     0  03:14           0        3.46       0.337
  WS02004402           JUNCTION      0.00   339.46     0  03:14           0        3.45       0.340
  WS02004403           JUNCTION      0.00   339.19     0  03:14           0        3.43       0.326
  WS02004404           JUNCTION      0.16   339.23     0  03:15     0.00457        3.43       0.317
  WS02004406           JUNCTION      0.00   339.10     0  03:15           0        3.41       0.657
  WS02004409           JUNCTION      0.00   339.01     0  03:16           0        3.38       0.139
  WS02004410           JUNCTION      0.00   338.34     0  03:17           0        3.38       0.200
  WS02004411           JUNCTION      0.00   337.81     0  03:18           0        3.37       0.236
  WS02004412           JUNCTION      0.00   337.44     0  03:18           0        3.36       0.295
  WS02004413           JUNCTION      0.00   337.23     0  03:19           0        3.35       0.500
  WS02004405           JUNCTION      0.04   339.20     0  03:15     0.00107        3.42       0.357
  WS02006109           JUNCTION      1.23   345.23     0  02:07      0.0347        3.49       0.152
  WS02006110           JUNCTION      0.00   344.18     0  02:08           0        3.48       0.280
  WS02006111           JUNCTION      0.00   345.63     0  02:08           0        3.47       0.022
  WS02006112           JUNCTION      4.54   344.43     0  02:08      0.0228        3.49       0.452
  WS02006113           JUNCTION      0.00   343.67     0  02:08           0        3.47       0.069
  WS02006115           JUNCTION      0.00   341.98     0  03:12           0        3.47       0.273
  WS02006116           JUNCTION      0.00   340.57     0  03:12           0        3.47       0.224
  WS02006230           JUNCTION     10.28   271.72     0  03:17        0.29        2.65       0.036
  WS02006231           JUNCTION      0.00   261.17     0  03:17           0        2.37       0.044
  WS02006232           JUNCTION      0.00   261.03     0  03:16           0        2.37       0.338
  WS02006234           JUNCTION      0.00   260.89     0  03:16           0        2.37      -0.268
  WS02006235           JUNCTION      0.00   320.57     0  02:55           0        2.83       0.434
  WS02006238           JUNCTION      0.00   217.58     0  02:55           0       0.941       0.317
  WS02006240           JUNCTION      0.00   101.65     0  02:56           0       0.578       0.186
  WS02006242           JUNCTION      0.00    90.76     0  02:57           0       0.387       0.345
  WS02006243           JUNCTION      0.00    53.07     0  02:58           0       0.241       2.544
  WS02006245           JUNCTION      0.00    28.00     0  02:10           0       0.173       2.996
  WS02006247           JUNCTION      0.00    20.24     0  02:10           0       0.143       0.298
  WS02006248           JUNCTION      0.00    20.00     0  01:50           0        0.13       0.175
  WS02006249           JUNCTION      0.00    20.04     0  01:48           0       0.128       0.256
  WS02006239           JUNCTION      0.00   126.26     0  01:58           0       0.771       0.005
  WS02006251           JUNCTION      0.08    20.06     0  01:47     0.00217       0.128       0.026
  WS02006252           JUNCTION      0.00     0.00     0  00:00           0           0       0.000 ltr
  WS02006253           JUNCTION      0.67    20.00     0  01:47     0.00295       0.126       0.161
  WS02006256           JUNCTION      0.00   300.00     0  01:57           0        2.65      -0.567
  WS02004138           JUNCTION      0.00   285.00     0  01:41           0        6.71       0.047
  WS02004139           JUNCTION      0.32   285.94     0  05:51     0.00905        6.72       0.452
  WS02004407           JUNCTION      0.00   339.03     0  03:15           0        3.38       0.061
  WS02006228           JUNCTION      0.00   344.42     0  02:07           0        3.46       0.186
  WS02006229           JUNCTION      0.00   343.87     0  02:07           0        3.47       0.279
  WS02006280           JUNCTION      0.00   109.40     0  01:48           0       0.813       0.010
  WS02006284           JUNCTION      0.10   109.40     0  01:47      0.0027       0.814       0.140
  WS02006287           JUNCTION      0.00   109.32     0  01:47           0       0.812       0.084
  WSF200               JUNCTION      0.00   337.19     0  03:20           0        3.33       0.045
  HS02004901           JUNCTION      5.59     5.59     0  01:35      0.0274      0.0276       6.799
  HS02004881           JUNCTION      2.29    19.48     0  01:47       0.012       0.123       0.049
  HS02004876           JUNCTION      3.71    17.37     0  01:47      0.0229       0.112       0.472
  HS02004870           JUNCTION      4.06    13.72     0  01:47      0.0226      0.0889       0.121
  HS02004862           JUNCTION      3.51     9.92     0  01:48      0.0282      0.0664       0.254
  HS02004856           JUNCTION      3.01     6.42     0  01:47       0.017      0.0396       3.765
  HS02004852           JUNCTION      0.00     3.58     0  01:48           0      0.0226       0.219
  HS02004848           JUNCTION      6.93     6.93     0  01:54      0.0538      0.0538       0.083
  HS02004842           JUNCTION      0.00     4.49     0  00:03           0      0.0443      41.594
  HS02004837           JUNCTION     12.91    16.01     0  01:47       0.218        0.25       0.317
  HS02004830           JUNCTION      0.15    16.15     0  01:48     0.00423        0.24       0.515
  HS02004824           JUNCTION      8.24    23.96     0  01:54      0.0706       0.309       0.175
  HS02004817           JUNCTION      0.60    24.56     0  01:54      0.0169       0.326       5.388
  HS02004807           JUNCTION      7.62    31.44     0  01:50      0.0417       0.351       1.231
  HS02004802           JUNCTION      0.00    31.54     0  01:52           0       0.347       1.171
  HS02004799           JUNCTION      5.90    66.40     0  01:44      0.0337       0.414       0.626
  HS02004792           JUNCTION     26.32    60.63     0  01:44       0.148       0.381       0.110
  HS02004788           JUNCTION      9.69    35.49     0  01:45      0.0939       0.234       0.165
  HS02004785           JUNCTION      0.15    26.05     0  01:44     0.00423       0.141       0.345
  HS02004777           JUNCTION      0.03    26.25     0  01:42    0.000846       0.142       3.794
  HS02004770           JUNCTION     22.12    27.03     0  01:38       0.117       0.143       2.212
  HS02004480           JUNCTION      0.00    78.44     0  01:45           0       0.481       0.218
  HS02004479           JUNCTION      0.00    12.06     0  01:49           0      0.0791       0.932
  HS02004478           JUNCTION      0.00   109.33     0  01:47           0       0.814       0.052
  YS02001745           JUNCTION     58.36    72.07     0  04:00       0.704       0.708       1.607
  YS02001748           JUNCTION      0.04   110.80     0  04:00     0.00127       0.698       3.607
  YS02001751           JUNCTION      0.01    87.71     0  03:59     0.00031       0.671       3.862
  YS02001754           JUNCTION      0.26    71.91     0  02:34     0.00733       0.653       4.181
  YS02001762           JUNCTION      0.00    73.92     0  03:11           0       0.744       3.246
  YS02001765           JUNCTION      0.00    80.17     0  02:58           0       0.748       3.630
  YS02001767           JUNCTION      0.54    85.91     0  03:09      0.0151        0.77       5.044
  YS02001770           JUNCTION     74.18    87.24     0  03:10       0.828        0.84       4.273
  YS02001774           JUNCTION      0.00    31.84     0  01:55           0      0.0655      70.853
  YS02001779           JUNCTION      0.01    24.85     0  03:10    0.000141      0.0271     150.975
  YS02001882           JUNCTION      0.00     2.55     0  01:46           0     0.00421      60.461
  YS02001884           JUNCTION      0.00     7.12     0  01:31           0       0.017      37.864
  YS02001759           JUNCTION     71.80   142.84     0  03:04       0.774        1.48       1.715
  YS02001887           JUNCTION     91.62    91.62     0  03:01       0.929       0.937       0.746
  YS02001890           JUNCTION      0.00    89.08     0  03:02           0       0.916       0.839
  YS02001898           JUNCTION      0.00    87.84     0  03:03           0       0.904       0.208
  YS02001901           JUNCTION      0.00    87.59     0  03:03           0       0.904       0.599
  YS02001904           JUNCTION      0.00    87.50     0  03:05           0       0.901       0.549
  YS02001907           JUNCTION      0.00   165.46     0  03:05           0        1.93       1.138
  YS02001910           JUNCTION      0.00    78.21     0  03:04           0        1.04       0.963
  YS02001915           JUNCTION     52.07    78.66     0  03:01       0.604        1.04       0.412
  YS02001918           JUNCTION      0.00    27.57     0  03:04           0        0.44       0.232
  YS02001619           JUNCTION     50.71    50.71     0  03:01       0.595       0.595       2.302
  YS02001629           JUNCTION      0.00    65.12     0  03:45           0       0.511       6.520
  YS02001641           JUNCTION      0.00    97.93     0  03:06           0        1.09       2.163
  YS02001644           JUNCTION     55.49   171.43     0  07:07       0.676        1.93       1.465
  YS02001652           JUNCTION      0.00    73.66     0  03:02           0       0.605       4.346
  YS02001655           JUNCTION      0.15    88.58     0  03:01     0.00434       0.631       4.281
  YS02001920           JUNCTION      2.87    27.60     0  03:03      0.0809       0.441       0.437
  YS02001923           JUNCTION      0.04    24.73     0  03:03     0.00106       0.361       0.076
  YS02001926           JUNCTION      0.05    24.84     0  03:01     0.00147       0.362       0.546
  YS02001929           JUNCTION     24.82    24.82     0  03:01       0.361       0.361       0.073
  YS02001658           JUNCTION      0.00    92.04     0  03:56           0       0.652       3.908
  YS02001661           JUNCTION      0.00    65.72     0  03:01           0       0.674       3.345
  YS02001664           JUNCTION     65.77    65.77     0  03:01       0.678       0.678       0.759
  YS02001622           JUNCTION      0.00    57.16     0  03:07           0       0.582       6.006
  YS02001633           JUNCTION     56.48   100.23     0  03:05       0.696        1.16       2.976
  YS02001649           JUNCTION      0.00   214.37     0  03:05           0        2.27       1.794
  YS02001757           JUNCTION      0.00   382.59     0  03:05           0        4.15       2.346
  YS02001895           JUNCTION      0.00    88.27     0  03:02           0       0.908       0.403
  YS02001625           JUNCTION      0.00    66.09     0  03:45           0       0.549       7.726
  YS02163301           JUNCTION      0.00    53.12     0  03:04           0       0.486       5.617
  YS02163601           JUNCTION      0.11   105.45     0  03:06      0.0031        1.12       2.903
  YS02164001           JUNCTION      0.00   103.93     0  03:06           0         1.1       2.184
  YS02001647           JUNCTION      0.00   152.50     0  03:06           0        1.75       1.753
  YSB1154              JUNCTION      6.59     6.59     0  01:43      0.0408      0.0417       3.597
  YSB6556              JUNCTION      0.00     6.77     0  01:47           0      0.0424       3.022
  YSB1174              JUNCTION      6.32     6.32     0  01:34      0.0298      0.0303       4.423
  YSB1171              JUNCTION      0.00    12.50     0  01:44           0      0.0782       8.806
  YS02006553           JUNCTION      0.00   165.66     0  03:07           0        1.92       0.739
  YS02006561           JUNCTION      0.00   241.22     0  03:05           0        2.72       0.022
  YS02006556           JUNCTION      0.00   165.88     0  03:07           0        1.92       0.531
  YS02006558           JUNCTION     79.36   241.23     0  03:05       0.846        2.74       0.162
  YS02001783           JUNCTION      0.00   241.22     0  03:05           0        2.72       0.052
  YS02001784           JUNCTION      1.06   242.27     0  03:05      0.0299        2.74       0.086
  YS02001786           JUNCTION      0.06   242.33     0  03:06     0.00159        2.74       0.083
  YS02001788           JUNCTION      0.07   242.40     0  03:06       0.002        2.74       0.048
  YS02001790           JUNCTION      0.15   242.55     0  03:06     0.00437        2.75       0.061
  YS02001791           JUNCTION      0.00   242.55     0  03:06           0        2.74       0.023
  YS02001793           JUNCTION      0.00   470.39     0  02:59           0        2.78       0.412
  WSC                  OUTFALL       0.00   647.03     0  03:24           0        10.6       0.000
  JK-storage           STORAGE       0.00   814.89     0  02:59           0        2.92       0.306
  CC-storage           STORAGE       0.00   382.50     0  03:05           0        3.89       1.698
  XR-storage           STORAGE     303.81   303.81     0  03:01        6.94        7.54       0.000
  
  
  **********************
  Node Surcharge Summary
  **********************
  
  Surcharging occurs when water rises above the top of the highest conduit.
  ---------------------------------------------------------------------
                                               Max. Height   Min. Depth
                                   Hours       Above Crown    Below Rim
  Node                 Type      Surcharged         Meters       Meters
  ---------------------------------------------------------------------
  WS02006256           JUNCTION        6.02          2.050        0.000
  YS02001748           JUNCTION        2.22          0.200        0.990
  YS02001751           JUNCTION        3.43          0.478        0.722
  YS02001754           JUNCTION        4.15          0.699        0.451
  YS02001762           JUNCTION        4.87          0.957        0.193
  YS02001765           JUNCTION        4.76          0.907        0.193
  YS02001767           JUNCTION        4.64          0.868        0.162
  YS02001770           JUNCTION        4.53          0.832        0.088
  YS02001774           JUNCTION        4.83          0.935        0.115
  YS02001779           JUNCTION        4.04          0.671        0.009
  YS02001759           JUNCTION        4.95          0.993        0.217
  YS02001619           JUNCTION        3.26          0.424        0.186
  YS02001629           JUNCTION        3.26          0.424        0.046
  YS02001641           JUNCTION        4.80          0.915        0.185
  YS02001644           JUNCTION        4.81          0.920        0.000
  YS02001652           JUNCTION        4.24          0.730        0.400
  YS02001655           JUNCTION        3.55          0.506        0.694
  YS02001658           JUNCTION        2.30          0.214        1.086
  YS02001622           JUNCTION        3.35          0.449        0.171
  YS02001633           JUNCTION        4.70          0.879        0.181
  YS02001649           JUNCTION        4.89          0.966        0.084
  YS02001757           JUNCTION        5.23          1.096        0.114
  YS02001625           JUNCTION        4.32          0.749        0.031
  YS02163301           JUNCTION        4.57          0.836        0.194
  YS02163601           JUNCTION        4.88          0.954        0.126
  YS02164001           JUNCTION        4.75          0.894        0.206
  YS02001647           JUNCTION        4.29          0.744        0.156
  
  
  *********************
  Node Flooding Summary
  *********************
  
  Flooding refers to all water that overflows a node, whether it ponds or not.
  --------------------------------------------------------------------------
                                                             Total   Maximum
                                 Maximum   Time of Max       Flood    Ponded
                        Hours       Rate    Occurrence      Volume     Depth
  Node                 Flooded       LPS   days hr:min    10^6 ltr    Meters
  --------------------------------------------------------------------------
  WS02006256              2.46    248.92      0  01:57       0.399     0.000
  YS02001644              0.97    171.42      0  07:07       0.331     0.000
  
  
  **********************
  Storage Volume Summary
  **********************
  
  --------------------------------------------------------------------------------------------------
                         Average     Avg  Evap Exfil       Maximum     Max    Time of Max    Maximum
                          Volume    Pcnt  Pcnt  Pcnt        Volume    Pcnt     Occurrence    Outflow
  Storage Unit           1000 m3    Full  Loss  Loss       1000 m3    Full    days hr:min        LPS
  --------------------------------------------------------------------------------------------------
  JK-storage               0.190      65     0     0         0.231      79       0  03:23     528.53
  CC-storage               1.777      11     0     0         3.795      24       0  07:00      67.54
  XR-storage               0.788      85     0     0         0.840      91       0  04:42     285.00
  
  
  ***********************
  Outfall Loading Summary
  ***********************
  
  ---------------------------------------------------------------------------------------------------------------------------------
                         Flow       Avg       Max       Total         Total         Total         Total         Total         Total
                         Freq      Flow      Flow      Volume           COD            SS            TN            TP         NH4-N
  Outfall Node           Pcnt       LPS       LPS    10^6 ltr            kg            kg            kg            kg            kg
  ---------------------------------------------------------------------------------------------------------------------------------
  WSC                   99.99    398.77    647.03      10.567      1628.874      2614.835       143.234        17.679        88.939
  ---------------------------------------------------------------------------------------------------------------------------------
  System                99.99    398.77    647.03      10.567      1628.874      2614.835       143.234        17.679        88.939
  
  
  ********************
  Link Flow Summary
  ********************
  
  -----------------------------------------------------------------------------
                                 Maximum  Time of Max   Maximum    Max/    Max/
                                  |Flow|   Occurrence   |Veloc|    Full    Full
  Link                 Type          LPS  days hr:min     m/sec    Flow   Depth
  -----------------------------------------------------------------------------
  WS02003066WSF200     CONDUIT    337.19     0  03:20      2.54    0.06    0.17
  WS02006287WS02006284 CONDUIT    109.31     0  01:47      1.30    0.05    0.16
  WS02006284WS02006280 CONDUIT    109.40     0  01:48      1.55    0.05    0.15
  WS02006280WS02006229 CONDUIT    109.40     0  01:48      2.48    0.02    0.11
  WS02006229WS02006228 CONDUIT    344.42     0  02:07      0.71    1.14    0.92
  WS02006256WS02006235 CONDUIT    288.42     0  07:49      4.19    3.05    1.00
  WS02006253WS02006251 CONDUIT     19.99     0  01:47      0.38    0.06    0.19
  WS02006252WS02006251 CONDUIT      0.00     0  00:00      0.00    0.00    0.00
  WS02006251WS02006249 CONDUIT     20.04     0  01:48      0.41    0.06    0.18
  WS02006249WS02006248 CONDUIT     20.00     0  01:50      0.49    0.11    0.16
  WS02006248WS02006247 CONDUIT     20.24     0  02:10      0.49    0.04    0.22
  WS02006247WS02006245 CONDUIT     28.00     0  02:10      0.44    0.22    0.29
  WS02006245WS02006243 CONDUIT     35.52     0  02:10      0.60    0.11    0.34
  WS02006243WS02006242 CONDUIT     66.49     0  02:09      0.55    0.14    0.48
  WS02006242WS02006240 CONDUIT     88.05     0  03:19      0.71    0.35    0.59
  WS02006240WS02006239 CONDUIT    110.69     0  03:18      0.75    0.35    0.61
  WS02006239WS02006238 CONDUIT    136.06     0  03:18      0.86    0.44    0.73
  WS02006238WS02006235 CONDUIT    196.77     0  02:16      1.37    0.44    0.78
  WS02006235WS02006234 CONDUIT    260.89     0  03:16      1.09    2.75    0.72
  WS02006234WS02006232 CONDUIT    261.03     0  03:16      0.99    0.53    0.78
  WS02006232WS02006231 CONDUIT    261.17     0  03:17      0.85    0.55    0.74
  WS02006231WS02006230 CONDUIT    261.44     0  03:17      1.19    3.97    0.57
  WS02006230WS02006229 CONDUIT    272.40     0  03:17      0.71    6.06    0.99
  WS02006228WS02006109 CONDUIT    344.00     0  02:07      0.70    1.50    0.95
  WS02006116WS02004401 CONDUIT    339.88     0  03:14      0.61    0.47    0.68
  WS02006115WS02006116 CONDUIT    340.57     0  03:12      0.80    0.44    0.60
  WS02006113WS02006111 CONDUIT    345.63     0  02:08      2.10    0.41    0.36
  WS02006112WS02006115 CONDUIT    341.98     0  03:12      0.60    0.20    0.72
  WS02006111WS02006112 CONDUIT    341.77     0  02:08      1.01    0.16    0.64
  WS02006110WS02006113 CONDUIT    343.67     0  02:08      0.91    0.31    0.70
  WS02006109WS02006110 CONDUIT    344.18     0  02:08      0.73    0.66    0.89
  WS02004411WS02004412 CONDUIT    337.44     0  03:18      0.79    0.48    0.56
  WS02004401WS02004402 CONDUIT    339.46     0  03:14      0.57    0.41    0.71
  WS02004413WS02003067 CONDUIT    337.18     0  03:20      0.86    0.14    0.50
  WS02004412WS02004413 CONDUIT    337.23     0  03:19      0.79    0.23    0.65
  WS02004410WS02004411 CONDUIT    337.81     0  03:18      0.77    0.46    0.55
  WS02004409WS02004410 CONDUIT    338.34     0  03:17      0.83    0.44    0.53
  WS02004407WS02004409 CONDUIT    339.01     0  03:16      1.30    0.12    0.37
  WS02004406WS02004407 CONDUIT    339.03     0  03:15      0.79    0.15    0.54
  WS02004405WS02004406 CONDUIT    339.10     0  03:15      0.49    0.67    0.83
  WS02004404WS02004405 CONDUIT    339.16     0  03:15      0.49    3.32    0.83
  WS02004403WS02004404 CONDUIT    339.07     0  03:15      0.51    0.25    0.79
  WS02004402WS02004403 CONDUIT    339.19     0  03:14      0.54    0.49    0.74
  WS02004139WS02001211 CONDUIT    287.20     0  05:52      0.54    0.36    0.52
  WS02004138WS02004139 CONDUIT    285.62     0  05:51      2.39    0.06    0.38
  WS02003067WS02003066 CONDUIT    337.19     0  03:20      0.93    0.11    0.36
  WS02001213WS02003059 CONDUIT    298.88     0  03:31      0.59    0.49    0.67
  WS02001212WS02001213 CONDUIT    296.37     0  03:31      1.19    0.46    0.38
  WS02001211WS02001212 CONDUIT    295.06     0  03:31      0.67    0.23    0.56
  WS02003072WS02003073 CONDUIT    645.24     0  03:23      1.51    1.39    0.40
  WS02003069WS02003072 CONDUIT    645.27     0  03:22      1.44    0.31    0.42
  WS02003060WS02003069 CONDUIT    644.97     0  03:22      1.70    0.25    0.37
  WS02003059WS02003060 CONDUIT    302.61     0  03:30      0.82    0.20    0.56
  HS02004901HS02004770 CONDUIT      5.11     0  01:43      0.05    0.02    0.25
  HS02004876HS02004881 CONDUIT     17.38     0  01:47      0.35    0.18    0.07
  HS02004870HS02004876 CONDUIT     13.72     0  01:48      0.25    0.01    0.08
  HS02004842HS02004848 CONDUIT      3.57     0  03:01      0.02    0.00    0.26
  HS02004837HS02004842 CONDUIT      4.49     0  00:03      0.42    0.00    0.27
  HS02004830HS02004837 CONDUIT     16.00     0  01:48      0.37    0.02    0.06
  HS02004824HS02004830 CONDUIT     16.16     0  01:49      0.42    0.02    0.06
  HS02004817HS02004824 CONDUIT     23.96     0  01:54      0.17    0.01    0.36
  HS02004770HS02004777 CONDUIT     26.22     0  01:42      0.15    0.05    0.27
  HS02004799HS02004480 CONDUIT     66.36     0  01:45      0.42    0.08    0.23
  HS02004792HS02004799 CONDUIT     60.61     0  01:45      0.49    0.04    0.18
  HS02004788HS02004792 CONDUIT     35.47     0  01:46      0.65    0.02    0.08
  HS02004785HS02004788 CONDUIT     25.98     0  01:46      0.37    0.20    0.10
  HS02004777HS02004785 CONDUIT     25.90     0  01:44      0.18    0.03    0.21
  HS02004480HS02004478 CONDUIT     78.23     0  01:46      0.73    0.33    0.15
  HS02004479HS02004480 CONDUIT     12.23     0  01:49      0.25    0.01    0.23
  HS02004862HS02004870 CONDUIT      9.90     0  01:49      0.35    0.01    0.04
  HS02004848HS02004852 CONDUIT      3.58     0  01:48      0.23    0.00    0.02
  HS02004856HS02004862 CONDUIT      6.41     0  01:48      0.25    0.01    0.04
  HS02004852HS02004856 CONDUIT      3.57     0  01:50      0.07    0.00    0.08
  HS02004802HS02004478 CONDUIT     31.67     0  01:53      0.23    0.03    0.20
  HS02004478WS02006287 CONDUIT    109.32     0  01:47      0.99    0.03    0.12
  HS02004817HS02004807 CONDUIT     24.77     0  01:56      0.08    0.01    0.46
  HS02004807HS02004802 CONDUIT     31.54     0  01:52      0.20    0.06    0.25
  YS02001759YS02001757 CONDUIT    143.92     0  03:04      0.18    0.10    1.00
  YS02001762YS02001759 CONDUIT     75.34     0  03:07      0.17    0.09    1.00
  YS02001765YS02001762 CONDUIT     73.92     0  03:11      0.27    0.07    1.00
  YS02001770YS02001767 CONDUIT     85.38     0  03:09      0.33    0.34    1.00
  YS02001774YS02001770 CONDUIT     31.84     0  01:55      0.20    0.02    1.00
  YS02001779YS02001774 CONDUIT     24.84     0  03:10      0.06    0.01    1.00
  YS02001649YS02001757 CONDUIT    215.76     0  03:05      0.27    0.13    1.00
  YS02001767YS02001765 CONDUIT     80.17     0  02:58      0.33    0.10    1.00
  YS02006561YS02001783 CONDUIT    241.22     0  03:05      1.67    0.12    0.33
  YS02001783YS02001784 CONDUIT    241.21     0  03:05      1.13    0.33    0.44
  YS02001784YS02001785 CONDUIT    242.27     0  03:06      1.19    0.56    0.42
  YS02001788YS02001790 CONDUIT    242.40     0  03:06      1.75    0.18    0.32
  YS02001790YS02001791 CONDUIT    242.55     0  03:06      2.04    0.26    0.29
  YS02001791YS02001793 CONDUIT    252.54     0  03:01      4.05    0.11    0.49
  YS02001910YS02001907 CONDUIT     78.05     0  03:05      0.49    0.04    0.68
  YS02001786YS02001788 CONDUIT    242.33     0  03:06      1.61    0.47    0.34
  YS02001915YS02001910 CONDUIT     78.21     0  03:04      0.52    0.04    0.47
  YS02001918YS02001915 CONDUIT     27.55     0  03:05      0.44    0.02    0.22
  YS02001923YS02001920 CONDUIT     24.73     0  03:03      0.41    0.01    0.13
  YS02001926YS02001923 CONDUIT     24.70     0  03:03      0.45    0.04    0.12
  YS02001929YS02001926 CONDUIT     24.79     0  03:01      0.48    0.01    0.12
  YS02001920YS02001918 CONDUIT     27.57     0  03:04      0.42    0.03    0.14
  YS02001629YS02163301 CONDUIT     53.12     0  03:04      0.09    0.07    1.00
  YS02001619YS02001622 CONDUIT     57.16     0  03:07      0.53    0.08    1.00
  YS02001622YS02001625 CONDUIT     66.09     0  03:45      0.26    0.04    1.00
  YS02001625YS02001629 CONDUIT     65.12     0  03:45      0.17    0.03    1.00
  YS02163301YS02001633 CONDUIT     45.44     0  03:05      0.10    0.04    1.00
  YS02163601YS02164001 CONDUIT    103.93     0  03:06      0.13    0.09    1.00
  YS02164001YS02001641 CONDUIT     97.93     0  03:06      0.12    0.13    1.00
  YS02001641YS02001644 CONDUIT     98.59     0  03:06      0.13    0.32    1.00
  YS02001647YS02001649 CONDUIT    155.28     0  03:07      0.20    0.08    1.00
  YS02006553YS02006556 CONDUIT    165.88     0  03:07      0.26    0.14    0.76
  YS02006556YS02006558 CONDUIT    166.04     0  03:07      0.25    0.13    0.79
  YSB6556YSB1171       CONDUIT      6.86     0  01:47      0.06    0.01    0.49
  YS02001907YS02006553 CONDUIT    165.66     0  03:07      0.21    0.19    0.87
  YS02006558YS02006561 CONDUIT    241.22     0  03:05      2.15    0.53    0.42
  YS02001633YS02163601 CONDUIT    105.34     0  03:06      0.13    0.11    1.00
  YS02001644YS02001647 CONDUIT    152.50     0  03:06      0.20    0.09    1.00
  YS02001745YS02001748 CONDUIT    110.76     0  04:00      1.24    0.04    0.92
  YS02001748YS02001751 CONDUIT     87.70     0  03:59      0.93    0.04    1.00
  YS02001751YS02001754 CONDUIT     69.82     0  02:34      0.85    0.03    1.00
  YS02001754YS02001757 CONDUIT     86.75     0  02:34      0.33    0.03    1.00
  YS02001882YS02001884 CONDUIT      2.55     0  01:46      0.11    0.00    0.40
  YS02001884YS02001887 CONDUIT      7.12     0  01:31      0.07    0.01    0.50
  YS02001890YS02001895 CONDUIT     88.27     0  03:02      0.25    0.04    0.47
  YS02001895YS02001898 CONDUIT     87.84     0  03:03      0.46    0.15    0.33
  YS02001898YS02001901 CONDUIT     87.59     0  03:03      0.29    0.06    0.41
  YS02001901YS02001904 CONDUIT     87.50     0  03:05      0.27    0.14    0.46
  YS02001904YS02001907 CONDUIT     87.73     0  03:05      0.17    0.03    0.62
  YS02001887YS02001890 CONDUIT     89.08     0  03:02      0.20    0.15    0.55
  YS02001652YS02001649 CONDUIT     81.17     0  03:02      0.53    0.04    1.00
  YS02001655YS02001652 CONDUIT     73.66     0  03:02      0.91    0.04    1.00
  YS02001658YS02001655 CONDUIT     88.43     0  03:01      1.07    0.04    1.00
  YS02001661YS02001658 CONDUIT     92.04     0  03:56      1.26    0.04    0.94
  YS02001664YS02001661 CONDUIT     65.72     0  03:01      0.99    0.02    0.69
  YSB1154YSB6556       CONDUIT      6.77     0  01:47      0.19    0.01    0.38
  YSB1174YSB1171       CONDUIT      6.58     0  01:34      0.04    0.01    0.50
  YSB1171HS02004479    CONDUIT     12.06     0  01:49      0.54    0.01    0.38
  HS02004881HS02006253 CONDUIT     19.47     0  01:47      1.27    0.00    0.02
  YS02001793JiankangQianchi CONDUIT    814.89     0  02:59      1.62    0.06    0.81
  YS02001757CaochengTiaoxuchi CONDUIT    382.50     0  03:05      0.66    0.17    1.00
  WSF200WS02003060     CONDUIT    337.24     0  03:20      1.39    0.07    0.27
  1                    CONDUIT    647.03     0  03:24      2.95    0.23    0.32
  CC-Pump-1            PUMP         0.00     0  00:00              0.00
  CC-Pump-2            PUMP         0.00     0  00:00              0.00
  JK-Pump-1            PUMP       300.00     0  01:57              1.00
  JK-Pump-2            PUMP         0.00     0  00:00              0.00
  XR-Pump-1            PUMP        95.00     0  00:00              1.00
  XR-Pump-2            PUMP        95.00     0  00:25              1.00
  XR-Pump-3            PUMP        95.00     0  01:41              1.00
  XR-Pump-4            PUMP         0.00     0  00:00              0.00
  
  
  ***************************
  Flow Classification Summary
  ***************************
  
  -------------------------------------------------------------------------------------
                      Adjusted    ---------- Fraction of Time in Flow Class ---------- 
                       /Actual         Up    Down  Sub   Sup   Up    Down  Norm  Inlet 
  Conduit               Length    Dry  Dry   Dry   Crit  Crit  Crit  Crit  Ltd   Ctrl  
  -------------------------------------------------------------------------------------
  WS02003066WSF200        1.00   0.21  0.00  0.00  0.00  0.79  0.00  0.00  0.75  0.00
  WS02006287WS02006284    1.00   0.07  0.04  0.00  0.52  0.37  0.00  0.00  0.82  0.00
  WS02006284WS02006280    1.00   0.09  0.00  0.00  0.00  0.00  0.00  0.91  0.00  0.00
  WS02006280WS02006229    1.00   0.09  0.00  0.00  0.00  0.00  0.00  0.91  0.00  0.00
  WS02006229WS02006228    1.00   0.00  0.00  0.00  0.99  0.00  0.00  0.01  0.00  0.00
  WS02006256WS02006235    1.00   0.14  0.00  0.00  0.84  0.02  0.00  0.00  0.01  0.00
  WS02006253WS02006251    1.00   0.03  0.04  0.00  0.91  0.00  0.01  0.00  0.00  0.00
  WS02006252WS02006251    1.00   1.00  0.00  0.00  0.00  0.00  0.00  0.00  0.00  0.00
  WS02006251WS02006249    1.00   0.00  0.00  0.00  1.00  0.00  0.00  0.00  0.98  0.00
  WS02006249WS02006248    1.00   0.00  0.01  0.00  0.24  0.00  0.74  0.00  0.00  0.00
  WS02006248WS02006247    1.00   0.01  0.00  0.00  0.95  0.00  0.00  0.04  0.65  0.00
  WS02006247WS02006245    1.00   0.02  0.00  0.00  0.92  0.00  0.00  0.07  0.00  0.00
  WS02006245WS02006243    1.00   0.02  0.00  0.00  0.86  0.00  0.00  0.12  0.02  0.00
  WS02006243WS02006242    1.00   0.03  0.00  0.00  0.87  0.00  0.00  0.10  0.45  0.00
  WS02006242WS02006240    1.00   0.03  0.09  0.00  0.86  0.00  0.02  0.00  0.01  0.00
  WS02006240WS02006239    1.00   0.12  0.00  0.00  0.77  0.00  0.00  0.11  0.05  0.00
  WS02006239WS02006238    1.00   0.12  0.00  0.00  0.86  0.00  0.00  0.02  0.02  0.00
  WS02006238WS02006235    1.00   0.12  0.02  0.00  0.86  0.00  0.00  0.00  0.00  0.00
  WS02006235WS02006234    1.00   0.15  0.00  0.00  0.79  0.00  0.06  0.00  0.00  0.00
  WS02006234WS02006232    1.00   0.15  0.00  0.00  0.85  0.00  0.00  0.00  0.01  0.00
  WS02006232WS02006231    1.00   0.15  0.02  0.00  0.82  0.00  0.01  0.00  0.00  0.00
  WS02006231WS02006230    1.00   0.16  0.00  0.00  0.13  0.00  0.71  0.00  0.00  0.00
  WS02006230WS02006229    1.00   0.00  0.00  0.00  0.98  0.00  0.00  0.02  0.02  0.00
  WS02006228WS02006109    1.00   0.00  0.00  0.00  1.00  0.00  0.00  0.00  0.01  0.00
  WS02006116WS02004401    1.00   0.07  0.00  0.00  0.93  0.00  0.00  0.00  0.00  0.00
  WS02006115WS02006116    1.00   0.07  0.00  0.00  0.85  0.00  0.00  0.08  0.00  0.00
  WS02006113WS02006111    1.00   0.04  0.00  0.00  0.02  0.94  0.00  0.00  0.30  0.00
  WS02006112WS02006115    1.00   0.05  0.03  0.00  0.92  0.00  0.00  0.00  0.00  0.00
  WS02006111WS02006112    1.00   0.05  0.00  0.00  0.94  0.00  0.00  0.01  0.92  0.00
  WS02006110WS02006113    1.00   0.01  0.04  0.00  0.96  0.00  0.00  0.00  0.00  0.00
  WS02006109WS02006110    1.00   0.00  0.01  0.00  0.98  0.00  0.01  0.00  0.00  0.00
  WS02004411WS02004412    1.00   0.17  0.00  0.00  0.83  0.00  0.00  0.00  0.00  0.00
  WS02004401WS02004402    1.00   0.08  0.00  0.00  0.92  0.00  0.00  0.00  0.04  0.00
  WS02004413WS02003067    1.00   0.18  0.02  0.00  0.00  0.00  0.80  0.00  0.00  0.00
  WS02004412WS02004413    1.00   0.17  0.00  0.00  0.82  0.01  0.00  0.00  0.00  0.00
  WS02004410WS02004411    1.00   0.17  0.00  0.00  0.83  0.00  0.00  0.00  0.00  0.00
  WS02004409WS02004410    1.00   0.17  0.00  0.00  0.83  0.00  0.00  0.00  0.00  0.00
  WS02004407WS02004409    1.00   0.17  0.00  0.00  0.82  0.01  0.00  0.00  0.78  0.00
  WS02004406WS02004407    1.00   0.00  0.17  0.00  0.83  0.00  0.00  0.00  0.00  0.00
  WS02004405WS02004406    1.00   0.00  0.00  0.00  1.00  0.00  0.00  0.00  0.04  0.00
  WS02004404WS02004405    1.00   0.00  0.00  0.00  1.00  0.00  0.00  0.00  0.02  0.00
  WS02004403WS02004404    1.00   0.00  0.08  0.00  0.92  0.00  0.00  0.00  0.04  0.00
  WS02004402WS02004403    1.00   0.08  0.00  0.00  0.92  0.00  0.00  0.00  0.00  0.00
  WS02004139WS02001211    1.00   0.00  0.00  0.00  1.00  0.00  0.00  0.00  0.00  0.00
  WS02004138WS02004139    1.00   0.00  0.00  0.00  0.99  0.01  0.00  0.00  1.00  0.00
  WS02003067WS02003066    1.00   0.20  0.01  0.00  0.79  0.00  0.00  0.00  0.00  0.00
  WS02001213WS02003059    1.00   0.00  0.00  0.00  0.99  0.00  0.00  0.00  0.00  0.00
  WS02001212WS02001213    1.00   0.00  0.00  0.00  0.33  0.00  0.66  0.00  0.00  0.00
  WS02001211WS02001212    1.00   0.00  0.00  0.00  1.00  0.00  0.00  0.00  0.00  0.00
  WS02003072WS02003073    1.00   0.00  0.00  0.00  0.00  0.00  0.00  1.00  0.00  0.00
  WS02003069WS02003072    1.00   0.00  0.00  0.00  1.00  0.00  0.00  0.00  0.47  0.00
  WS02003060WS02003069    1.00   0.00  0.00  0.00  0.99  0.01  0.00  0.00  0.27  0.00
  WS02003059WS02003060    1.00   0.00  0.00  0.00  1.00  0.00  0.00  0.00  0.02  0.00
  HS02004901HS02004770    1.00   0.09  0.00  0.00  0.91  0.00  0.00  0.00  0.00  0.00
  HS02004876HS02004881    1.00   0.01  0.00  0.00  0.99  0.00  0.00  0.00  0.00  0.00
  HS02004870HS02004876    1.00   0.00  0.00  0.00  0.99  0.01  0.00  0.00  0.95  0.00
  HS02004842HS02004848    1.00   0.00  0.09  0.00  0.91  0.00  0.00  0.00  0.61  0.00
  HS02004837HS02004842    1.00   0.00  0.00  0.00  1.00  0.00  0.00  0.00  0.11  0.00
  HS02004830HS02004837    1.00   0.00  0.00  0.00  1.00  0.00  0.00  0.00  0.99  0.00
  HS02004824HS02004830    1.00   0.00  0.00  0.00  1.00  0.00  0.00  0.00  0.00  0.00
  HS02004817HS02004824    1.00   0.00  0.00  0.00  1.00  0.00  0.00  0.00  1.00  0.00
  HS02004770HS02004777    1.00   0.00  0.09  0.00  0.91  0.00  0.00  0.00  0.03  0.00
  HS02004799HS02004480    1.00   0.00  0.02  0.00  0.89  0.00  0.09  0.00  0.00  0.00
  HS02004792HS02004799    1.00   0.00  0.00  0.00  0.99  0.01  0.00  0.00  0.98  0.00
  HS02004788HS02004792    1.00   0.00  0.00  0.00  0.99  0.01  0.00  0.00  0.98  0.00
  HS02004785HS02004788    1.00   0.00  0.00  0.00  1.00  0.00  0.00  0.00  0.00  0.00
  HS02004777HS02004785    1.00   0.00  0.00  0.00  1.00  0.00  0.00  0.00  0.13  0.00
  HS02004480HS02004478    1.00   0.09  0.00  0.00  0.53  0.00  0.00  0.37  0.00  0.00
  HS02004479HS02004480    1.00   0.03  0.00  0.00  0.97  0.00  0.00  0.00  0.12  0.00
  HS02004862HS02004870    1.00   0.00  0.00  0.00  1.00  0.00  0.00  0.00  0.04  0.00
  HS02004848HS02004852    1.00   0.09  0.00  0.00  0.91  0.00  0.00  0.00  0.74  0.00
  HS02004856HS02004862    1.00   0.00  0.13  0.00  0.87  0.00  0.00  0.00  0.81  0.00
  HS02004852HS02004856    1.00   0.09  0.01  0.00  0.90  0.00  0.00  0.00  0.85  0.00
  HS02004802HS02004478    1.00   0.09  0.01  0.00  0.90  0.00  0.00  0.00  0.02  0.00
  HS02004478WS02006287    1.00   0.12  0.00  0.00  0.88  0.00  0.00  0.00  0.83  0.00
  HS02004817HS02004807    1.00   0.00  0.09  0.00  0.91  0.00  0.00  0.00  0.01  0.00
  HS02004807HS02004802    1.00   0.09  0.00  0.00  0.90  0.00  0.00  0.01  0.00  0.00
  YS02001759YS02001757    1.00   0.00  0.00  0.00  1.00  0.00  0.00  0.00  0.17  0.00
  YS02001762YS02001759    1.00   0.00  0.00  0.00  1.00  0.00  0.00  0.00  0.03  0.00
  YS02001765YS02001762    1.00   0.00  0.00  0.00  1.00  0.00  0.00  0.00  0.16  0.00
  YS02001770YS02001767    1.00   0.00  0.00  0.00  1.00  0.00  0.00  0.00  0.00  0.00
  YS02001774YS02001770    1.00   0.00  0.10  0.00  0.90  0.00  0.00  0.00  0.03  0.00
  YS02001779YS02001774    1.00   0.00  0.00  0.00  1.00  0.00  0.00  0.00  0.20  0.00
  YS02001649YS02001757    1.00   0.00  0.00  0.00  1.00  0.00  0.00  0.00  0.17  0.00
  YS02001767YS02001765    1.00   0.00  0.00  0.00  1.00  0.00  0.00  0.00  0.00  0.00
  YS02006561YS02001783    1.00   0.14  0.00  0.00  0.00  0.86  0.00  0.00  0.79  0.00
  YS02001783YS02001784    1.00   0.00  0.14  0.00  0.86  0.00  0.00  0.00  0.01  0.00
  YS02001784YS02001785    1.00   0.00  0.00  0.00  1.00  0.00  0.00  0.00  0.19  0.00
  YS02001788YS02001790    1.00   0.00  0.00  0.00  0.15  0.85  0.00  0.00  0.87  0.00
  YS02001790YS02001791    1.00   0.00  0.00  0.00  0.01  0.99  0.00  0.00  0.56  0.00
  YS02001791YS02001793    1.00   0.00  0.00  0.00  0.18  0.82  0.00  0.00  0.28  0.00
  YS02001910YS02001907    1.00   0.00  0.00  0.00  0.98  0.00  0.00  0.02  0.13  0.00
  YS02001786YS02001788    1.00   0.00  0.00  0.00  0.16  0.84  0.00  0.00  0.00  0.00
  YS02001915YS02001910    1.00   0.00  0.00  0.00  0.98  0.02  0.00  0.00  0.18  0.00
  YS02001918YS02001915    1.00   0.00  0.00  0.00  0.99  0.01  0.00  0.00  0.86  0.00
  YS02001923YS02001920    1.00   0.00  0.00  0.00  1.00  0.00  0.00  0.00  1.00  0.00
  YS02001926YS02001923    1.00   0.00  0.05  0.00  0.00  0.00  0.95  0.00  0.00  0.00
  YS02001929YS02001926    1.00   0.00  0.09  0.00  0.91  0.00  0.00  0.00  0.87  0.00
  YS02001920YS02001918    1.00   0.00  0.00  0.00  1.00  0.00  0.00  0.00  0.00  0.00
  YS02001629YS02163301    1.00   0.11  0.01  0.00  0.88  0.00  0.00  0.00  0.00  0.00
  YS02001619YS02001622    1.00   0.09  0.00  0.00  0.91  0.00  0.00  0.00  0.00  0.00
  YS02001622YS02001625    1.00   0.09  0.00  0.00  0.91  0.00  0.00  0.00  0.06  0.00
  YS02001625YS02001629    1.00   0.09  0.05  0.00  0.80  0.00  0.05  0.00  0.00  0.00
  YS02163301YS02001633    1.00   0.00  0.11  0.00  0.89  0.00  0.00  0.00  0.00  0.00
  YS02163601YS02164001    1.00   0.00  0.06  0.00  0.94  0.00  0.00  0.00  0.00  0.00
  YS02164001YS02001641    1.00   0.01  0.05  0.00  0.94  0.00  0.00  0.00  0.06  0.00
  YS02001641YS02001644    1.00   0.00  0.00  0.00  1.00  0.00  0.00  0.00  0.00  0.00
  YS02001647YS02001649    1.00   0.00  0.13  0.00  0.87  0.00  0.00  0.00  0.01  0.00
  YS02006553YS02006556    1.00   0.01  0.00  0.00  0.99  0.00  0.00  0.00  0.03  0.00
  YS02006556YS02006558    1.00   0.00  0.00  0.00  1.00  0.00  0.00  0.00  0.00  0.00
  YSB6556YSB1171          1.00   0.03  0.06  0.00  0.92  0.00  0.00  0.00  0.00  0.00
  YS02001907YS02006553    1.00   0.00  0.01  0.00  0.98  0.00  0.00  0.00  0.00  0.00
  YS02006558YS02006561    1.00   0.14  0.00  0.00  0.00  0.86  0.00  0.00  0.79  0.00
  YS02001633YS02163601    1.00   0.00  0.00  0.00  1.00  0.00  0.00  0.00  0.16  0.00
  YS02001644YS02001647    1.00   0.00  0.13  0.00  0.87  0.00  0.00  0.00  0.00  0.00
  YS02001745YS02001748    1.00   0.00  0.00  0.00  0.66  0.03  0.00  0.31  0.13  0.00
  YS02001748YS02001751    1.00   0.00  0.00  0.00  0.90  0.10  0.00  0.00  0.18  0.00
  YS02001751YS02001754    1.00   0.00  0.00  0.00  0.84  0.00  0.00  0.16  0.03  0.00
  YS02001754YS02001757    1.00   0.00  0.00  0.00  1.00  0.00  0.00  0.00  0.20  0.00
  YS02001882YS02001884    1.00   0.11  0.01  0.00  0.89  0.00  0.00  0.00  0.00  0.00
  YS02001884YS02001887    1.00   0.04  0.04  0.00  0.92  0.00  0.00  0.00  0.00  0.00
  YS02001890YS02001895    1.00   0.00  0.12  0.00  0.88  0.00  0.00  0.00  0.00  0.00
  YS02001895YS02001898    1.00   0.12  0.00  0.00  0.85  0.00  0.03  0.00  0.00  0.00
  YS02001898YS02001901    1.00   0.12  0.00  0.00  0.88  0.00  0.00  0.00  0.02  0.00
  YS02001901YS02001904    1.00   0.12  0.00  0.00  0.88  0.00  0.00  0.00  0.00  0.00
  YS02001904YS02001907    1.00   0.00  0.12  0.00  0.88  0.00  0.00  0.00  0.00  0.00
  YS02001887YS02001890    1.00   0.00  0.00  0.00  0.98  0.00  0.02  0.00  0.00  0.00
  YS02001652YS02001649    1.00   0.00  0.00  0.00  0.99  0.01  0.00  0.00  0.18  0.00
  YS02001655YS02001652    1.00   0.00  0.00  0.00  0.84  0.00  0.00  0.15  0.03  0.00
  YS02001658YS02001655    1.00   0.00  0.10  0.00  0.80  0.09  0.00  0.00  0.17  0.00
  YS02001661YS02001658    1.00   0.10  0.00  0.00  0.66  0.24  0.00  0.00  0.25  0.00
  YS02001664YS02001661    1.00   0.09  0.00  0.00  0.89  0.02  0.00  0.00  0.48  0.00
  YSB1154YSB6556          1.00   0.09  0.00  0.00  0.91  0.00  0.00  0.00  0.02  0.00
  YSB1174YSB1171          1.00   0.03  0.03  0.00  0.94  0.00  0.00  0.00  0.00  0.00
  YSB1171HS02004479       1.00   0.03  0.00  0.00  0.96  0.00  0.00  0.01  0.11  0.00
  HS02004881HS02006253    1.00   0.04  0.00  0.00  0.00  0.00  0.00  0.96  0.00  0.00
  YS02001793JiankangQianchi    1.00   0.00  0.00  0.00  1.00  0.00  0.00  0.00  0.69  0.00
  YS02001757CaochengTiaoxuchi    1.00   0.00  0.20  0.00  0.80  0.00  0.00  0.00  0.00  0.00
  WSF200WS02003060        1.00   0.00  0.21  0.00  0.79  0.00  0.00  0.00  0.72  0.00
  1                       1.00   0.00  0.00  0.00  0.00  1.00  0.00  0.00  0.34  0.00
  
  
  *************************
  Conduit Surcharge Summary
  *************************
  
  ----------------------------------------------------------------------------
                                                           Hours        Hours 
                         --------- Hours Full --------   Above Full   Capacity
  Conduit                Both Ends  Upstream  Dnstream   Normal Flow   Limited
  ----------------------------------------------------------------------------
  WS02006229WS02006228        0.01      0.01      0.01      0.57         0.01
  WS02006256WS02006235        3.27      3.34      5.98      2.48         0.01
  WS02006235WS02006234        0.01      0.01      0.01      2.86         0.01
  WS02006231WS02006230        0.01      0.01      0.01      3.78         0.01
  WS02006230WS02006229        0.01      0.30      0.01      4.58         0.01
  WS02006228WS02006109        0.01      0.01      0.01      1.32         0.01
  WS02006111WS02006112        0.01      0.01      0.46      0.01         0.01
  WS02004404WS02004405        0.01      0.01      0.01      4.09         0.01
  WS02003072WS02003073        0.01      0.01      0.01      2.30         0.01
  YS02001759YS02001757        4.95      4.95      5.23      0.01         0.01
  YS02001762YS02001759        4.87      4.87      4.95      0.01         0.01
  YS02001765YS02001762        4.76      4.76      4.87      0.01         0.01
  YS02001770YS02001767        4.62      4.62      4.64      0.01         0.13
  YS02001774YS02001770        4.53      4.53      4.83      0.01         0.01
  YS02001779YS02001774        4.04      4.04      4.83      0.01         0.01
  YS02001649YS02001757        4.89      4.89      5.23      0.01         0.01
  YS02001767YS02001765        4.64      4.64      4.76      0.01         0.01
  YS02001629YS02163301        4.48      4.48      4.57      0.01         0.01
  YS02001619YS02001622        3.26      3.26      3.35      0.01         0.01
  YS02001622YS02001625        3.35      3.35      4.32      0.01         0.01
  YS02001625YS02001629        3.26      3.26      4.32      0.01         0.01
  YS02163301YS02001633        4.57      4.57      4.77      0.01         0.01
  YS02163601YS02164001        4.75      4.75      4.88      0.01         0.01
  YS02164001YS02001641        4.75      4.75      4.80      0.01         0.01
  YS02001641YS02001644        4.80      4.80      4.81      0.01         0.11
  YS02001647YS02001649        4.29      4.29      4.89      0.01         0.01
  YS02001633YS02163601        4.70      4.70      4.88      0.01         0.01
  YS02001644YS02001647        4.29      4.29      4.81      0.01         0.01
  YS02001745YS02001748        0.01      0.01      2.22      0.01         0.01
  YS02001748YS02001751        2.62      2.62      3.43      0.01         0.01
  YS02001751YS02001754        3.43      3.43      4.15      0.01         0.01
  YS02001754YS02001757        4.29      4.29      5.23      0.01         0.01
  YS02001652YS02001649        4.33      4.33      4.89      0.01         0.01
  YS02001655YS02001652        3.55      3.55      4.24      0.01         0.01
  YS02001658YS02001655        2.30      2.30      3.55      0.01         0.01
  YS02001661YS02001658        0.01      0.01      2.30      0.01         0.01
  YS02001793JiankangQianchi        0.01      0.01      7.82      0.01         0.01
  YS02001757CaochengTiaoxuchi        2.94      2.94      5.23      0.01         0.01
  
  
  ***************
  Pumping Summary
  ***************
  
  ---------------------------------------------------------------------------------------------------------
                                                  Min       Avg       Max     Total     Power    % Time Off
                        Percent   Number of      Flow      Flow      Flow    Volume     Usage    Pump Curve
  Pump                 Utilized   Start-Ups       LPS       LPS       LPS  10^6 ltr     Kw-hr    Low   High
  ---------------------------------------------------------------------------------------------------------
  CC-Pump-1                0.00           0      0.00      0.00      0.00     0.000      0.00    0.0    0.0
  CC-Pump-2                0.00           0      0.00      0.00      0.00     0.000      0.00    0.0    0.0
  JK-Pump-1               31.38          16      0.00    300.00    300.00     2.654     32.76    0.0    0.0
  JK-Pump-2                0.00           0      0.00      0.00      0.00     0.000      0.00    0.0    0.0
  XR-Pump-1              100.00           1      0.00     95.00     95.00     2.679     20.79    0.0    0.0
  XR-Pump-2               94.70           1      0.00     95.00     95.00     2.537     19.37    0.0    0.0
  XR-Pump-3               55.77           4      0.00     95.00     95.00     1.494     11.47    0.0    0.0
  XR-Pump-4                0.00           0      0.00      0.00      0.00     0.000      0.00    0.0    0.0
  
  
  ***************************
  Link Pollutant Load Summary
  ***************************
  
  ------------------------------------------------------------------------------------------
                                 COD            SS            TN            TP         NH4-N
  Link                            kg            kg            kg            kg            kg
  ------------------------------------------------------------------------------------------
  WS02003066WSF200           230.742       376.873        10.711         1.152         6.229
  WS02006287WS02006284        92.541       152.758         6.008         0.705         3.630
  WS02006284WS02006280        92.991       153.480         6.052         0.711         3.658
  WS02006280WS02006229        92.964       153.436         6.050         0.710         3.656
  WS02006229WS02006228       234.520       382.194        10.875         1.167         6.322
  WS02006256WS02006235       136.858       220.274         4.745         0.453         2.632
  WS02006253WS02006251         8.917        15.466         0.282         0.025         0.151
  WS02006252WS02006251         0.000         0.000         0.000         0.000         0.000
  WS02006251WS02006249         9.482        16.376         0.334         0.032         0.184
  WS02006249WS02006248         9.383        16.210         0.327         0.031         0.179
  WS02006248WS02006247         9.626        16.606         0.338         0.032         0.186
  WS02006247WS02006245        11.004        18.798         0.401         0.038         0.222
  WS02006245WS02006243        12.987        21.982         0.474         0.046         0.263
  WS02006243WS02006242        18.688        31.259         0.654         0.062         0.360
  WS02006242WS02006240        29.926        49.374         1.019         0.095         0.560
  WS02006240WS02006239        40.428        66.093         1.397         0.132         0.771
  WS02006239WS02006238        51.735        83.886         1.824         0.174         1.012
  WS02006238WS02006235        59.108        95.344         2.113         0.203         1.176
  WS02006235WS02006234       142.640       230.519         4.906         0.467         2.716
  WS02006234WS02006232       143.072       231.224         4.923         0.468         2.726
  WS02006232WS02006231       142.531       230.336         4.899         0.466         2.712
  WS02006231WS02006230       142.453       230.156         4.896         0.466         2.710
  WS02006230WS02006229       142.512       230.273         4.898         0.466         2.711
  WS02006228WS02006109       233.558       380.692        10.790         1.157         6.270
  WS02006116WS02004401       239.443       390.458        11.294         1.220         6.583
  WS02006115WS02006116       240.078       391.421        11.336         1.225         6.608
  WS02006113WS02006111       240.398       391.689        11.448         1.239         6.681
  WS02006112WS02006115       240.692       392.398        11.380         1.230         6.635
  WS02006111WS02006112       240.150       391.321        11.428         1.237         6.669
  WS02006110WS02006113       240.606       392.025        11.466         1.242         6.692
  WS02006109WS02006110       241.521       393.492        11.548         1.252         6.743
  WS02004411WS02004412       233.118       380.619        10.880         1.172         6.332
  WS02004401WS02004402       238.616       389.155        11.238         1.213         6.549
  WS02004413WS02003067       231.334       377.796        10.749         1.156         6.252
  WS02004412WS02004413       232.234       379.239        10.819         1.165         6.295
  WS02004410WS02004411       233.730       381.571        10.922         1.177         6.358
  WS02004409WS02004410       234.220       382.337        10.957         1.181         6.379
  WS02004407WS02004409       234.605       382.928        10.984         1.184         6.396
  WS02004406WS02004407       234.748       383.137        10.994         1.185         6.402
  WS02004405WS02004406       236.568       386.023        11.139         1.203         6.491
  WS02004404WS02004405       237.397       387.284        11.187         1.208         6.520
  WS02004403WS02004404       236.992       386.615        11.128         1.200         6.482
  WS02004402WS02004403       237.776       387.851        11.182         1.207         6.515
  WS02004139WS02001211      1251.384      2003.120       118.299        14.747        73.813
  WS02004138WS02004139      1256.255      2010.920       118.752        14.803        74.096
  WS02003067WS02003066       230.799       376.961        10.715         1.152         6.232
  WS02001213WS02003059      1287.477      2060.856       121.794        15.184        75.999
  WS02001212WS02001213      1294.506      2072.110       122.452        15.266        76.409
  WS02001211WS02001212      1296.286      2074.959       122.621        15.287        76.515
  WS02003072WS02003073      1621.539      2603.074       142.477        17.583        88.463
  WS02003069WS02003072      1625.524      2609.444       142.855        17.630        88.699
  WS02003060WS02003069      1626.648      2611.232       142.948        17.642        88.757
  WS02003059WS02003060      1285.402      2057.533       121.603        15.160        75.880
  HS02004901HS02004770         1.804         3.082         0.037         0.003         0.017
  HS02004876HS02004881         7.602        13.134         0.260         0.024         0.141
  HS02004870HS02004876         5.983        10.292         0.235         0.023         0.130
  HS02004842HS02004848         1.163         1.947         0.027         0.002         0.012
  HS02004837HS02004842         5.833         9.406         0.495         0.061         0.306
  HS02004830HS02004837        47.150        76.006         4.209         0.521         2.618
  HS02004824HS02004830        47.902        77.209         4.281         0.530         2.663
  HS02004817HS02004824        52.082        84.458         4.390         0.538         2.719
  HS02004770HS02004777         7.107        12.251         0.164         0.010         0.074
  HS02004799HS02004480        35.000        58.074         1.816         0.202         1.060
  HS02004792HS02004799        33.170        54.696         1.829         0.206         1.076
  HS02004788HS02004792        22.930        37.838         1.480         0.172         0.887
  HS02004785HS02004788         8.578        14.608         0.316         0.030         0.169
  HS02004777HS02004785         7.965        13.627         0.259         0.023         0.134
  HS02004480HS02004478        40.399        67.617         1.864         0.202         1.074
  HS02004479HS02004480         9.206        15.619         0.397         0.044         0.231
  HS02004862HS02004870         4.554         7.678         0.205         0.021         0.116
  HS02004848HS02004852         1.052         1.761         0.025         0.002         0.011
  HS02004856HS02004862         2.167         3.773         0.048         0.003         0.022
  HS02004852HS02004856         1.057         1.770         0.025         0.002         0.011
  HS02004802HS02004478        52.635        85.928         4.190         0.509         2.584
  HS02004478WS02006287        92.732       153.064         6.027         0.707         3.642
  HS02004817HS02004807        50.707        82.258         4.259         0.522         2.637
  HS02004807HS02004802        53.029        86.560         4.230         0.514         2.609
  YS02001759YS02001757        73.549       118.466         1.837         0.137         0.936
  YS02001762YS02001759        39.553        64.311         1.138         0.091         0.599
  YS02001765YS02001762        39.500        64.199         1.162         0.094         0.614
  YS02001770YS02001767        37.378        60.732         0.882         0.057         0.435
  YS02001774YS02001770         3.333         5.387         0.090         0.007         0.046
  YS02001779YS02001774         2.798         4.495         0.155         0.017         0.092
  YS02001649YS02001757       105.931       165.656         2.461         0.179         1.193
  YS02001767YS02001765        39.797        64.657         1.185         0.097         0.628
  YS02006561YS02001783       165.735       265.691         5.393         0.497         2.950
  YS02001783YS02001784       165.665       265.588         5.390         0.497         2.948
  YS02001784YS02001785       173.032       277.388         6.102         0.586         3.393
  YS02001788YS02001790       173.715       278.498         6.174         0.595         3.439
  YS02001790YS02001791       174.707       280.094         6.273         0.608         3.500
  YS02001791YS02001793       174.676       280.049         6.271         0.607         3.499
  YS02001910YS02001907        63.002       100.341         2.985         0.309         1.728
  YS02001786YS02001788       173.279       277.794         6.130         0.590         3.411
  YS02001915YS02001910        62.936       100.183         2.950         0.304         1.705
  YS02001918YS02001915        36.688        57.265         2.334         0.272         1.411
  YS02001923YS02001920        16.665        25.217         0.399         0.030         0.202
  YS02001926YS02001923        16.287        24.608         0.360         0.025         0.177
  YS02001929YS02001926        15.991        24.125         0.328         0.021         0.157
  YS02001920YS02001918        36.610        57.136         2.317         0.269         1.401
  YS02001629YS02163301        17.833        28.016         0.420         0.026         0.193
  YS02001619YS02001622        20.818        32.502         0.493         0.030         0.226
  YS02001622YS02001625        19.902        31.152         0.469         0.028         0.215
  YS02001625YS02001629        18.849        29.605         0.443         0.027         0.203
  YS02163301YS02001633        17.466        27.437         0.411         0.025         0.190
  YS02163601YS02164001        51.484        80.198         1.232         0.091         0.605
  YS02164001YS02001641        50.974        79.391         1.209         0.088         0.593
  YS02001641YS02001644        50.911        79.275         1.200         0.087         0.587
  YS02001647YS02001649        83.954       130.421         1.898         0.137         0.922
  YS02006553YS02006556       121.865       194.983         4.249         0.408         2.366
  YS02006556YS02006558       121.843       194.930         4.217         0.404         2.344
  YSB6556YSB1171               4.547         7.775         0.150         0.015         0.084
  YS02001907YS02006553       121.932       195.101         4.267         0.411         2.377
  YS02006558YS02006561       165.754       265.716         5.394         0.497         2.951
  YS02001633YS02163601        52.047        80.994         1.213         0.087         0.590
  YS02001644YS02001647        84.886       131.777         1.912         0.138         0.929
  YS02001745YS02001748        31.849        50.968         0.934         0.072         0.488
  YS02001748YS02001751        30.942        49.596         0.919         0.072         0.482
  YS02001751YS02001754        30.214        48.497         0.911         0.072         0.480
  YS02001754YS02001757        31.152        50.034         1.074         0.094         0.586
  YS02001882YS02001884         0.353         0.538         0.010         0.001         0.006
  YS02001884YS02001887         1.332         2.081         0.036         0.003         0.019
  YS02001890YS02001895        60.004        96.305         1.319         0.105         0.669
  YS02001895YS02001898        59.876        96.120         1.313         0.104         0.666
  YS02001898YS02001901        59.793        96.006         1.310         0.104         0.664
  YS02001901YS02001904        59.783        96.025         1.323         0.106         0.672
  YS02001904YS02001907        60.232        96.787         1.382         0.113         0.710
  YS02001887YS02001890        60.777        97.492         1.375         0.112         0.704
  YS02001652YS02001649        26.008        41.278         0.656         0.049         0.312
  YS02001655YS02001652        26.943        42.703         0.683         0.051         0.325
  YS02001658YS02001655        26.722        42.255         0.607         0.040         0.274
  YS02001661YS02001658        27.483        43.352         0.627         0.041         0.283
  YS02001664YS02001661        27.895        43.893         0.639         0.042         0.288
  YSB1154YSB6556               4.116         7.089         0.097         0.009         0.051
  YSB1174YSB1171               3.064         5.308         0.096         0.010         0.053
  YSB1171HS02004479            9.164        15.558         0.396         0.044         0.231
  HS02004881HS02006253         8.511        14.760         0.276         0.025         0.149
  YS02001793JiankangQianchi       177.820       285.208         6.355         0.614         3.543
  YS02001757CaochengTiaoxuchi       196.537       312.915         4.799         0.356         2.394
  WSF200WS02003060           230.347       376.254        10.686         1.149         6.214
  1                         1628.874      2614.835       143.234        17.679        88.939
  CC-Pump-1                    0.000         0.000         0.000         0.000         0.000
  CC-Pump-2                    0.000         0.000         0.000         0.000         0.000
  JK-Pump-1                  160.864       258.944         5.565         0.531         3.085
  JK-Pump-2                    0.000         0.000         0.000         0.000         0.000
  XR-Pump-1                  488.644       782.185        46.201         5.759        28.828
  XR-Pump-2                  481.603       770.920        45.525         5.675        28.406
  XR-Pump-3                  288.639       462.028        27.273         3.399        17.015
  XR-Pump-4                    0.000         0.000         0.000         0.000         0.000
  

  Analysis begun on:  Tue Jun 15 20:32:18 2021
  Analysis ended on:  Tue Jun 15 20:32:19 2021
  Total elapsed time: 00:00:01