
  EPA STORM WATER MANAGEMENT MODEL - VERSION 5.1 (Build 5.3.0.dev0)
  --------------------------------------------------------------

  
  *********************************************************
  NOTE: The summary statistics displayed in this report are
  based on results found at every computational time step,  
  not just on results from each reporting time step.
  *********************************************************
  
  ****************
  Analysis Options
  ****************
  Flow Units ............... CMS
  Process Models:
    Rainfall/Runoff ........ YES
    RDII ................... NO
    Snowmelt ............... NO
    Groundwater ............ NO
    Flow Routing ........... YES
    Ponding Allowed ........ YES
    Water Quality .......... NO
  Infiltration Method ...... HORTON
  Flow Routing Method ...... DYNWAVE
  Surcharge Method ......... EXTRAN
  Starting Date ............ 08/28/2015 08:00:00
  Ending Date .............. 08/28/2015 15:50:00
  Antecedent Dry Days ...... 0.0
  Report Time Step ......... 00:01:00
  Wet Time Step ............ 00:01:00
  Dry Time Step ............ 00:01:00
  Routing Time Step ........ 5.00 sec
  Variable Time Step ....... YES
  Maximum Trials ........... 8
  Number of Threads ........ 1
  Head Tolerance ........... 0.001500 m
  
  
  **************************        Volume         Depth
  Runoff Quantity Continuity     hectare-m            mm
  **************************     ---------       -------
  Total Precipitation ......         3.270        18.147
  Evaporation Loss .........         0.000         0.000
  Infiltration Loss ........         0.000         0.000
  Surface Runoff ...........         3.246        18.013
  Final Storage ............         0.024         0.135
  Continuity Error (%) .....        -0.007
  
  
  **************************        Volume        Volume
  Flow Routing Continuity        hectare-m      10^6 ltr
  **************************     ---------     ---------
  Dry Weather Inflow .......         0.396         3.955
  Wet Weather Inflow .......         3.246        32.459
  Groundwater Inflow .......         0.000         0.000
  RDII Inflow ..............         0.000         0.000
  External Inflow ..........         0.000         0.000
  External Outflow .........         0.621         6.206
  Flooding Loss ............         2.171        21.707
  Evaporation Loss .........         0.000         0.000
  Exfiltration Loss ........         0.000         0.000
  Initial Stored Volume ....         0.000         0.000
  Final Stored Volume ......         0.692         6.917
  Continuity Error (%) .....         4.352
  
  
  *************************
  Highest Continuity Errors
  *************************
  Node T3 (13.26%)
  Node T5 (11.89%)
  Node T2 (7.08%)
  Node J12 (6.11%)
  Node T4 (5.81%)
  
  
  ***************************
  Time-Step Critical Elements
  ***************************
  None
  
  
  ********************************
  Highest Flow Instability Indexes
  ********************************
  All links are stable.
  
  
  *************************
  Routing Time Step Summary
  *************************
  Minimum Time Step           :     4.50 sec
  Average Time Step           :     5.00 sec
  Maximum Time Step           :     5.00 sec
  Percent in Steady State     :     0.00
  Average Iterations per Step :     2.20
  Percent Not Converging      :     0.59
  
  
  ***************************
  Subcatchment Runoff Summary
  ***************************
  
  ------------------------------------------------------------------------------------------------------------------------------
                            Total      Total      Total      Total     Imperv       Perv      Total       Total     Peak  Runoff
                           Precip      Runon       Evap      Infil     Runoff     Runoff     Runoff      Runoff   Runoff   Coeff
  Subcatchment                 mm         mm         mm         mm         mm         mm         mm    10^6 ltr      CMS
  ------------------------------------------------------------------------------------------------------------------------------
  SC01                      18.15       0.00       0.00       0.00      18.06       0.00      18.06        5.96     1.66   0.995
  SC02                      18.15       0.00       0.00       0.00      18.06       0.00      18.06        4.11     1.13   0.995
  SC03                      18.15       0.00       0.00       0.00      18.08       0.00      18.08        3.25     0.95   0.996
  SC04                      18.15       0.00       0.00       0.00      17.94       0.00      17.94        1.24     0.30   0.989
  SC05                      18.15       0.00       0.00       0.00      18.05       0.00      18.05        2.82     0.78   0.995
  SC06                      18.15       0.00       0.00       0.00      17.89       0.00      17.89        5.82     1.38   0.986
  SC07                      18.15       0.00       0.00       0.00      17.95       0.00      17.95        0.85     0.21   0.989
  SC08                      18.15       0.00       0.00       0.00      18.03       0.00      18.03        5.05     1.34   0.993
  SC09                      18.15       0.00       0.00       0.00      18.00       0.00      18.00        1.24     0.32   0.992
  SC010                     18.15       0.00       0.00       0.00      18.03       0.00      18.03        2.12     0.56   0.994
  
  
  ******************
  Node Depth Summary
  ******************
  
  ---------------------------------------------------------------------------------
                                 Average  Maximum  Maximum  Time of Max    Reported
                                   Depth    Depth      HGL   Occurrence   Max Depth
  Node                 Type       Meters   Meters   Meters  days hr:min      Meters
  ---------------------------------------------------------------------------------
  J1                   JUNCTION     0.09     0.30    34.30     0  02:42        0.30
  J3                   JUNCTION     0.14     0.17    18.17     0  03:28        0.17
  CSO7                 JUNCTION     0.31     1.20    35.20     0  01:53        1.20
  J5                   JUNCTION     0.08     0.21    32.21     0  02:45        0.21
  CSO9                 JUNCTION     0.43     2.00    42.00     0  02:03        2.00
  J8                   JUNCTION     0.14     0.40    36.40     0  02:46        0.40
  CSO8                 JUNCTION     0.45     2.00    34.00     0  01:59        2.00
  J10                  JUNCTION     0.12     0.36    29.36     0  02:42        0.36
  J13                  JUNCTION     0.08     0.28    29.28     0  02:42        0.28
  J15                  JUNCTION     0.24     0.51    15.51     0  02:45        0.51
  J16                  JUNCTION     0.09     0.31    30.31     0  02:42        0.31
  CSO10                JUNCTION     0.25     1.00    31.00     0  01:58        1.00
  J12                  JUNCTION     0.70     1.14    27.14     0  02:53        1.14
  J4                   JUNCTION     0.22     1.22    34.22     0  01:53        1.13
  J6                   JUNCTION     0.09     0.12    25.12     0  03:22        0.12
  J2                   JUNCTION     0.07     0.08    25.08     0  03:18        0.08
  J19                  JUNCTION     0.15     0.17     8.17     0  02:04        0.17
  J9                   JUNCTION     0.13     0.16    29.16     0  03:36        0.16
  J14                  JUNCTION     0.15     0.19    20.19     0  06:22        0.19
  J17                  JUNCTION     0.12     0.15    20.15     0  03:17        0.15
  J7                   JUNCTION     0.10     0.23    39.23     0  03:09        0.23
  J11                  JUNCTION     0.12     0.30    31.30     0  03:09        0.30
  J18                  JUNCTION     0.07     0.16    29.16     0  02:35        0.16
  Out_to_WWTP          OUTFALL      0.15     0.17     6.17     0  02:04        0.17
  T5                   STORAGE      3.63     5.00    32.00     0  02:23        5.00
  T4                   STORAGE      2.70     5.00    32.00     0  02:50        5.00
  T6                   STORAGE      3.01     5.00    36.00     0  02:20        5.00
  T3                   STORAGE      3.62     5.00    27.00     0  02:48        5.00
  T2                   STORAGE      2.65     5.00    26.00     0  02:40        5.00
  T1                   STORAGE      3.92     5.00    15.00     0  02:03        5.00
  
  
  *******************
  Node Inflow Summary
  *******************
  
  -------------------------------------------------------------------------------------------------
                                  Maximum  Maximum                  Lateral       Total        Flow
                                  Lateral    Total  Time of Max      Inflow      Inflow     Balance
                                   Inflow   Inflow   Occurrence      Volume      Volume       Error
  Node                 Type           CMS      CMS  days hr:min    10^6 ltr    10^6 ltr     Percent
  -------------------------------------------------------------------------------------------------
  J1                   JUNCTION     0.796    0.796     0  02:42        3.38        3.38       0.003
  J3                   JUNCTION     0.000    0.309     0  02:56           0        6.46       0.769
  CSO7                 JUNCTION     0.220    0.220     0  02:45        1.14        1.14       0.041
  J5                   JUNCTION     0.309    0.383     0  02:45        1.37        2.16       0.044
  CSO9                 JUNCTION     0.327    0.327     0  02:43        1.44        1.44       0.030
  J8                   JUNCTION     1.411    1.538     0  02:46        6.76        7.82       0.042
  CSO8                 JUNCTION     1.348    1.348     0  02:43        5.34        5.34       0.011
  J10                  JUNCTION     0.960    1.446     0  02:41        3.64        7.32      -0.062
  J13                  JUNCTION     1.149    1.149     0  02:42        4.58        4.58      -0.142
  J15                  JUNCTION     0.000    2.310     0  02:42           0        17.1       0.701
  J16                  JUNCTION     1.680    1.680     0  02:42        6.51        6.51      -0.031
  CSO10                JUNCTION     0.570    0.570     0  02:43        2.26        2.26       0.016
  J12                  JUNCTION     0.000    1.613     0  02:42           0        10.8       6.506
  J4                   JUNCTION     0.000    0.074     0  02:45           0       0.801       0.420
  J6                   JUNCTION     0.000    0.080     0  02:50           0        1.49       0.379
  J2                   JUNCTION     0.000    0.039     0  02:23           0       0.876       0.605
  J19                  JUNCTION     0.000    0.271     0  02:03           0        6.22       0.203
  J9                   JUNCTION     0.000    0.175     0  02:20           0        3.49       0.552
  J14                  JUNCTION     0.000    0.190     0  02:48           0        4.11       0.244
  J17                  JUNCTION     0.000    0.140     0  02:40           0        2.59       0.447
  J7                   JUNCTION     0.000    0.127     0  03:09           0        1.06       0.293
  J11                  JUNCTION     0.000    0.486     0  03:08           0        3.69       0.181
  J18                  JUNCTION     0.000    0.202     0  02:35           0        1.55       0.021
  Out_to_WWTP          OUTFALL      0.000    0.271     0  02:05           0        6.21       0.000
  T5                   STORAGE      0.000    0.795     0  02:42           0        3.38      13.498
  T4                   STORAGE      0.000    0.382     0  02:45           0        2.16       6.170
  T6                   STORAGE      0.000    1.537     0  02:46           0        7.81       3.852
  T3                   STORAGE      0.000    2.205     0  02:56           0        10.1      15.286
  T2                   STORAGE      0.000    1.148     0  02:42           0        4.58       7.616
  T1                   STORAGE      0.000    2.278     0  02:45           0        16.9       5.134
  
  
  **********************
  Node Surcharge Summary
  **********************
  
  Surcharging occurs when water rises above the top of the highest conduit.
  ---------------------------------------------------------------------
                                               Max. Height   Min. Depth
                                   Hours       Above Crown    Below Rim
  Node                 Type      Surcharged         Meters       Meters
  ---------------------------------------------------------------------
  CSO7                 JUNCTION        1.61          0.945        0.000
  CSO9                 JUNCTION        1.63          1.682        0.000
  CSO8                 JUNCTION        1.59          1.547        0.000
  CSO10                JUNCTION        1.32          0.560        0.000
  J4                   JUNCTION        1.57          0.919        0.781
  
  
  *********************
  Node Flooding Summary
  *********************
  
  Flooding refers to all water that overflows a node, whether it ponds or not.
  --------------------------------------------------------------------------
                                                             Total   Maximum
                                 Maximum   Time of Max       Flood    Ponded
                        Hours       Rate    Occurrence      Volume     Depth
  Node                 Flooded       CMS   days hr:min    10^6 ltr    Meters
  --------------------------------------------------------------------------
  CSO7                    1.43     0.146      0  02:45       0.342     0.000
  CSO9                    1.11     0.199      0  02:43       0.382     0.000
  CSO8                    1.15     0.862      0  02:43       1.648     0.000
  CSO10                   1.17     0.367      0  02:43       0.706     0.000
  T5                      1.75     0.756      0  02:42       1.697     0.000
  T4                      0.86     0.293      0  02:50       0.384     0.000
  T6                      1.69     1.362      0  02:46       3.841     0.000
  T3                      2.06     2.015      0  02:56       2.168     0.000
  T2                      0.73     1.008      0  02:42       1.352     0.000
  T1                      5.78     2.007      0  02:45       9.189     0.000
  
  
  **********************
  Storage Volume Summary
  **********************
  
  --------------------------------------------------------------------------------------------------
                         Average     Avg  Evap Exfil       Maximum     Max    Time of Max    Maximum
                          Volume    Pcnt  Pcnt  Pcnt        Volume    Pcnt     Occurrence    Outflow
  Storage Unit           1000 m3    Full  Loss  Loss       1000 m3    Full    days hr:min        CMS
  --------------------------------------------------------------------------------------------------
  T5                       0.363      73     0     0         0.500     100       0  02:23      0.039
  T4                       0.270      54     0     0         0.500     100       0  02:50      0.080
  T6                       0.361      60     0     0         0.600     100       0  02:20      0.175
  T3                       1.883      72     0     0         2.600     100       0  02:48      0.190
  T2                       0.530      53     0     0         1.000     100       0  02:40      0.140
  T1                       0.549      78     0     0         0.700     100       0  02:03      0.271
  
  
  ***********************
  Outfall Loading Summary
  ***********************
  
  -----------------------------------------------------------
                         Flow       Avg       Max       Total
                         Freq      Flow      Flow      Volume
  Outfall Node           Pcnt       CMS       CMS    10^6 ltr
  -----------------------------------------------------------
  Out_to_WWTP           99.01     0.222     0.271       6.206
  -----------------------------------------------------------
  System                99.01     0.222     0.271       6.206
  
  
  ********************
  Link Flow Summary
  ********************
  
  -----------------------------------------------------------------------------
                                 Maximum  Time of Max   Maximum    Max/    Max/
                                  |Flow|   Occurrence   |Veloc|    Full    Full
  Link                 Type          CMS  days hr:min     m/sec    Flow   Depth
  -----------------------------------------------------------------------------
  C1                   CONDUIT     0.039     0  03:14      0.91    0.01    0.13
  C6                   CONDUIT     0.074     0  02:45      1.29    1.17    0.85
  C2                   CONDUIT     0.080     0  03:22      1.48    0.09    0.25
  C9                   CONDUIT     0.127     0  03:10      1.30    0.43    0.63
  C16                  CONDUIT     0.487     0  02:07      1.82    0.05    0.16
  C3                   CONDUIT     0.190     0  02:50      2.05    0.07    0.18
  C19                  CONDUIT     0.140     0  03:17      1.24    0.05    0.33
  C11                  CONDUIT     0.309     0  03:28      1.85    0.02    0.17
  C20                  CONDUIT     1.679     0  02:42      3.66    0.05    0.21
  C22                  CONDUIT     0.202     0  02:35      1.49    0.09    0.42
  C12                  CONDUIT     0.175     0  03:36      0.76    0.01    0.33
  C17                  CONDUIT     1.438     0  02:42      3.29    0.07    0.37
  C10                  CONDUIT     1.537     0  02:46      1.66    0.16    0.63
  C13                  CONDUIT     2.205     0  02:56      1.53    0.13    0.78
  C18                  CONDUIT     1.148     0  02:42      1.72    0.04    0.57
  C23                  CONDUIT     2.278     0  02:45      1.81    0.25    0.67
  C4                   CONDUIT     0.795     0  02:42      1.98    0.19    0.65
  C7                   CONDUIT     0.382     0  02:45      1.43    0.09    0.60
  C14                  CONDUIT     0.271     0  02:05      2.08    0.02    0.09
  C5                   CONDUIT     0.074     0  02:45      1.44    1.26    1.00
  C8                   CONDUIT     0.127     0  03:09      1.75    1.60    0.86
  C15                  CONDUIT     0.486     0  03:08      3.42    1.55    0.83
  C21                  CONDUIT     0.202     0  02:35      1.82    1.16    0.69
  V4                   ORIFICE     0.080     0  02:50                      1.00
  V5                   ORIFICE     0.039     0  02:23                      1.00
  V1                   ORIFICE     0.271     0  02:03                      1.00
  V6                   ORIFICE     0.175     0  02:20                      1.00
  V3                   ORIFICE     0.190     0  02:48                      1.00
  V2                   ORIFICE     0.140     0  02:40                      1.00
  
  
  ***************************
  Flow Classification Summary
  ***************************
  
  -------------------------------------------------------------------------------------
                      Adjusted    ---------- Fraction of Time in Flow Class ---------- 
                       /Actual         Up    Down  Sub   Sup   Up    Down  Norm  Inlet 
  Conduit               Length    Dry  Dry   Dry   Crit  Crit  Crit  Crit  Ltd   Ctrl  
  -------------------------------------------------------------------------------------
  C1                      1.00   0.00  0.00  0.00  0.92  0.08  0.00  0.00  0.95  0.00
  C6                      1.00   0.00  0.00  0.00  0.23  0.77  0.00  0.00  0.00  0.00
  C2                      1.00   0.00  0.00  0.00  0.01  0.99  0.00  0.00  0.94  0.00
  C9                      1.00   0.00  0.00  0.00  1.00  0.00  0.00  0.00  1.00  0.00
  C16                     1.00   0.00  0.00  0.00  0.55  0.45  0.00  0.00  0.43  0.00
  C3                      1.00   0.00  0.00  0.00  0.05  0.94  0.00  0.00  0.07  0.00
  C19                     1.00   0.00  0.00  0.00  0.61  0.39  0.00  0.00  1.00  0.00
  C11                     1.00   0.00  0.00  0.00  0.33  0.67  0.00  0.00  1.00  0.00
  C20                     1.00   0.00  0.00  0.00  0.62  0.38  0.00  0.00  0.98  0.00
  C22                     1.00   0.00  0.00  0.00  0.85  0.15  0.00  0.00  1.00  0.00
  C12                     1.00   0.00  0.00  0.00  0.94  0.06  0.00  0.00  1.00  0.00
  C17                     1.00   0.00  0.00  0.00  0.65  0.35  0.00  0.00  0.94  0.00
  C10                     1.00   0.00  0.00  0.00  0.94  0.06  0.00  0.00  0.97  0.00
  C13                     1.00   0.00  0.00  0.00  0.83  0.17  0.00  0.00  0.24  0.00
  C18                     1.00   0.00  0.00  0.00  0.83  0.17  0.00  0.00  0.97  0.00
  C23                     1.00   0.00  0.00  0.00  0.90  0.10  0.00  0.00  0.94  0.00
  C4                      1.00   0.00  0.00  0.00  0.96  0.04  0.00  0.00  0.98  0.00
  C7                      1.00   0.00  0.00  0.00  0.91  0.09  0.00  0.00  0.96  0.00
  C14                     1.00   0.00  0.00  0.00  0.00  0.99  0.00  0.00  0.00  0.00
  C5                      1.00   0.00  0.00  0.00  0.91  0.09  0.00  0.00  0.77  0.00
  C8                      1.00   0.00  0.00  0.00  0.24  0.76  0.00  0.00  0.00  0.00
  C15                     1.00   0.00  0.00  0.00  0.00  1.00  0.00  0.00  0.00  0.00
  C21                     1.00   0.00  0.00  0.00  0.00  1.00  0.00  0.00  0.00  0.00
  
  
  *************************
  Conduit Surcharge Summary
  *************************
  
  ----------------------------------------------------------------------------
                                                           Hours        Hours 
                         --------- Hours Full --------   Above Full   Capacity
  Conduit                Both Ends  Upstream  Dnstream   Normal Flow   Limited
  ----------------------------------------------------------------------------
  C6                          0.01      1.57      0.01      1.47         0.01
  C10                         0.01      0.01      6.02      0.01         0.01
  C13                         0.01      0.01      5.74      0.01         0.01
  C18                         0.01      0.01      5.03      0.01         0.01
  C23                         0.01      0.01      6.22      0.01         0.01
  C4                          0.01      0.01      6.26      0.01         0.01
  C7                          0.01      0.01      5.94      0.01         0.01
  C5                          1.61      1.61      1.71      1.67         1.57
  C8                          0.01      1.63      0.01      1.65         0.01
  C15                         0.01      1.59      0.01      1.66         0.01
  C21                         0.01      1.32      0.01      1.34         0.01
  

  Analysis begun on:  Fri Sep  3 19:04:06 2021
  Analysis ended on:  Fri Sep  3 19:04:06 2021
  Total elapsed time: < 1 sec