
  EPA STORM WATER MANAGEMENT MODEL - VERSION 5.1 (Build 5.3.0.dev0)
  --------------------------------------------------------------

  
  *********************************************************
  NOTE: The summary statistics displayed in this report are
  based on results found at every computational time step,  
  not just on results from each reporting time step.
  *********************************************************
  
  ****************
  Analysis Options
  ****************
  Flow Units ............... CMS
  Process Models:
    Rainfall/Runoff ........ YES
    RDII ................... NO
    Snowmelt ............... NO
    Groundwater ............ NO
    Flow Routing ........... YES
    Ponding Allowed ........ YES
    Water Quality .......... NO
  Infiltration Method ...... HORTON
  Flow Routing Method ...... DYNWAVE
  Surcharge Method ......... EXTRAN
  Starting Date ............ 08/28/2015 08:00:00
  Ending Date .............. 08/28/2015 15:50:00
  Antecedent Dry Days ...... 0.0
  Report Time Step ......... 00:01:00
  Wet Time Step ............ 00:01:00
  Dry Time Step ............ 00:01:00
  Routing Time Step ........ 5.00 sec
  Variable Time Step ....... YES
  Maximum Trials ........... 8
  Number of Threads ........ 1
  Head Tolerance ........... 0.001500 m
  
  
  **************************        Volume         Depth
  Runoff Quantity Continuity     hectare-m            mm
  **************************     ---------       -------
  Total Precipitation ......         1.391         7.721
  Evaporation Loss .........         0.000         0.000
  Infiltration Loss ........         0.000         0.000
  Surface Runoff ...........         1.368         7.591
  Final Storage ............         0.024         0.131
  Continuity Error (%) .....        -0.013
  
  
  **************************        Volume        Volume
  Flow Routing Continuity        hectare-m      10^6 ltr
  **************************     ---------     ---------
  Dry Weather Inflow .......         0.396         3.956
  Wet Weather Inflow .......         1.368        13.680
  Groundwater Inflow .......         0.000         0.000
  RDII Inflow ..............         0.000         0.000
  External Inflow ..........         0.000         0.000
  External Outflow .........         0.609         6.089
  Flooding Loss ............         0.443         4.431
  Evaporation Loss .........         0.000         0.000
  Exfiltration Loss ........         0.000         0.000
  Initial Stored Volume ....         0.000         0.000
  Final Stored Volume ......         0.569         5.688
  Continuity Error (%) .....         8.093
  
  
  *************************
  Highest Continuity Errors
  *************************
  Node T5 (22.88%)
  Node T3 (16.88%)
  Node T1 (7.21%)
  Node T6 (6.46%)
  Node T2 (6.21%)
  
  
  ***************************
  Time-Step Critical Elements
  ***************************
  None
  
  
  ********************************
  Highest Flow Instability Indexes
  ********************************
  Link C13 (1)
  
  
  *************************
  Routing Time Step Summary
  *************************
  Minimum Time Step           :     1.48 sec
  Average Time Step           :     5.00 sec
  Maximum Time Step           :     5.00 sec
  Percent in Steady State     :     0.00
  Average Iterations per Step :     2.14
  Percent Not Converging      :     0.55
  
  
  ***************************
  Subcatchment Runoff Summary
  ***************************
  
  ------------------------------------------------------------------------------------------------------------------------------
                            Total      Total      Total      Total     Imperv       Perv      Total       Total     Peak  Runoff
                           Precip      Runon       Evap      Infil     Runoff     Runoff     Runoff      Runoff   Runoff   Coeff
  Subcatchment                 mm         mm         mm         mm         mm         mm         mm    10^6 ltr      CMS
  ------------------------------------------------------------------------------------------------------------------------------
  SC01                       7.72       0.00       0.00       0.00       7.64       0.00       7.64        2.52     0.59   0.989
  SC02                       7.72       0.00       0.00       0.00       7.63       0.00       7.63        1.74     0.40   0.988
  SC03                       7.72       0.00       0.00       0.00       7.65       0.00       7.65        1.38     0.34   0.991
  SC04                       7.72       0.00       0.00       0.00       7.53       0.00       7.53        0.52     0.11   0.975
  SC05                       7.72       0.00       0.00       0.00       7.63       0.00       7.63        1.19     0.28   0.988
  SC06                       7.72       0.00       0.00       0.00       7.47       0.00       7.47        2.43     0.47   0.968
  SC07                       7.72       0.00       0.00       0.00       7.53       0.00       7.53        0.36     0.07   0.975
  SC08                       7.72       0.00       0.00       0.00       7.60       0.00       7.60        2.13     0.47   0.985
  SC09                       7.72       0.00       0.00       0.00       7.58       0.00       7.58        0.52     0.11   0.982
  SC010                      7.72       0.00       0.00       0.00       7.61       0.00       7.61        0.89     0.20   0.985
  
  
  ******************
  Node Depth Summary
  ******************
  
  ---------------------------------------------------------------------------------
                                 Average  Maximum  Maximum  Time of Max    Reported
                                   Depth    Depth      HGL   Occurrence   Max Depth
  Node                 Type       Meters   Meters   Meters  days hr:min      Meters
  ---------------------------------------------------------------------------------
  J1                   JUNCTION     0.08     0.18    34.18     0  02:49        0.18
  J3                   JUNCTION     0.13     0.16    18.16     0  03:56        0.16
  CSO7                 JUNCTION     0.16     1.20    35.20     0  02:43        1.20
  J5                   JUNCTION     0.07     0.14    32.14     0  02:53        0.14
  CSO9                 JUNCTION     0.18     1.67    41.67     0  02:50        1.67
  J8                   JUNCTION     0.11     0.26    36.26     0  02:54        0.26
  CSO8                 JUNCTION     0.21     1.95    33.95     0  02:49        1.95
  J10                  JUNCTION     0.10     0.28    29.28     0  02:51        0.28
  J13                  JUNCTION     0.07     0.17    29.17     0  02:49        0.17
  J15                  JUNCTION     0.21     0.35    15.35     0  02:54        0.35
  J16                  JUNCTION     0.07     0.19    30.19     0  02:48        0.19
  CSO10                JUNCTION     0.15     1.00    31.00     0  02:43        1.00
  J12                  JUNCTION     0.32     0.51    26.51     0  05:40        0.51
  J4                   JUNCTION     0.15     1.29    34.29     0  02:43        0.77
  J6                   JUNCTION     0.08     0.11    25.11     0  03:38        0.11
  J2                   JUNCTION     0.07     0.08    25.08     0  03:54        0.08
  J19                  JUNCTION     0.15     0.17     8.17     0  02:35        0.17
  J9                   JUNCTION     0.13     0.16    29.16     0  03:45        0.16
  J14                  JUNCTION     0.15     0.18    20.18     0  06:22        0.18
  J17                  JUNCTION     0.10     0.13    20.13     0  03:23        0.13
  J7                   JUNCTION     0.09     0.22    39.22     0  02:53        0.22
  J11                  JUNCTION     0.11     0.29    31.29     0  02:51        0.29
  J18                  JUNCTION     0.06     0.16    29.16     0  02:52        0.16
  Out_to_WWTP          OUTFALL      0.15     0.17     6.17     0  02:34        0.17
  T5                   STORAGE      3.37     5.00    32.00     0  03:06        5.00
  T4                   STORAGE      1.52     3.08    30.08     0  03:37        3.08
  T6                   STORAGE      2.63     5.00    36.00     0  03:01        5.00
  T3                   STORAGE      3.02     4.51    26.51     0  05:36        4.51
  T2                   STORAGE      1.43     2.98    23.98     0  03:21        2.98
  T1                   STORAGE      3.78     5.00    15.00     0  02:34        5.00
  
  
  *******************
  Node Inflow Summary
  *******************
  
  -------------------------------------------------------------------------------------------------
                                  Maximum  Maximum                  Lateral       Total        Flow
                                  Lateral    Total  Time of Max      Inflow      Inflow     Balance
                                   Inflow   Inflow   Occurrence      Volume      Volume       Error
  Node                 Type           CMS      CMS  days hr:min    10^6 ltr    10^6 ltr     Percent
  -------------------------------------------------------------------------------------------------
  J1                   JUNCTION     0.296    0.296     0  02:49        1.75        1.75       0.007
  J3                   JUNCTION     0.000    0.279     0  03:55           0        5.68       0.814
  CSO7                 JUNCTION     0.083    0.083     0  02:52       0.648       0.648       0.073
  J5                   JUNCTION     0.110    0.180     0  02:52       0.647        1.28       0.093
  CSO9                 JUNCTION     0.119    0.119     0  02:51       0.719       0.719       0.060
  J8                   JUNCTION     0.506    0.624     0  02:54        3.37        4.09       0.094
  CSO8                 JUNCTION     0.482    0.482     0  02:50        2.42        2.42       0.017
  J10                  JUNCTION     0.356    0.825     0  02:49        1.76        4.18       0.077
  J13                  JUNCTION     0.420    0.420     0  02:49         2.2         2.2      -0.223
  J15                  JUNCTION     0.000    1.117     0  02:50           0        11.6       0.931
  J16                  JUNCTION     0.613    0.613     0  02:48        3.07        3.07      -0.032
  CSO10                JUNCTION     0.204    0.204     0  02:50        1.03        1.03       0.020
  J12                  JUNCTION     0.000    0.974     0  02:51           0        7.41       2.816
  J4                   JUNCTION     0.000    0.074     0  02:43           0       0.636       0.529
  J6                   JUNCTION     0.000    0.062     0  03:37           0        1.12       0.390
  J2                   JUNCTION     0.000    0.039     0  03:06           0       0.839       0.632
  J19                  JUNCTION     0.000    0.271     0  02:34           0         6.1       0.208
  J9                   JUNCTION     0.000    0.175     0  03:01           0        3.25       0.597
  J14                  JUNCTION     0.000    0.180     0  05:36           0        3.74       0.259
  J17                  JUNCTION     0.000    0.108     0  03:21           0        1.91       0.461
  J7                   JUNCTION     0.000    0.119     0  02:51           0       0.719       0.446
  J11                  JUNCTION     0.000    0.482     0  02:50           0        2.42       0.264
  J18                  JUNCTION     0.000    0.202     0  02:52           0        1.03       0.053
  Out_to_WWTP          OUTFALL      0.000    0.271     0  02:36           0        6.09       0.000
  T5                   STORAGE      0.000    0.296     0  02:49           0        1.75      29.669
  T4                   STORAGE      0.000    0.180     0  02:53           0        1.28       5.799
  T6                   STORAGE      0.000    0.623     0  02:54           0        4.09       6.901
  T3                   STORAGE      0.000    0.966     0  02:54           0         7.2      20.302
  T2                   STORAGE      0.000    0.419     0  02:49           0        2.21       6.621
  T1                   STORAGE      0.000    1.106     0  02:54           0        11.5       7.771
  
  
  **********************
  Node Surcharge Summary
  **********************
  
  Surcharging occurs when water rises above the top of the highest conduit.
  ---------------------------------------------------------------------
                                               Max. Height   Min. Depth
                                   Hours       Above Crown    Below Rim
  Node                 Type      Surcharged         Meters       Meters
  ---------------------------------------------------------------------
  CSO7                 JUNCTION        0.52          0.945        0.000
  CSO9                 JUNCTION        0.52          1.354        0.328
  CSO8                 JUNCTION        0.48          1.501        0.046
  CSO10                JUNCTION        0.32          0.560        0.000
  J4                   JUNCTION        0.49          0.995        0.705
  
  
  *********************
  Node Flooding Summary
  *********************
  
  Flooding refers to all water that overflows a node, whether it ponds or not.
  --------------------------------------------------------------------------
                                                             Total   Maximum
                                 Maximum   Time of Max       Flood    Ponded
                        Hours       Rate    Occurrence      Volume     Depth
  Node                 Flooded       CMS   days hr:min    10^6 ltr    Meters
  --------------------------------------------------------------------------
  CSO7                    0.34     0.012      0  02:52       0.012     0.000
  CSO10                   0.09     0.010      0  02:43       0.000     0.000
  T5                      0.81     0.147      0  03:06       0.111     0.000
  T6                      0.73     0.435      0  03:01       0.403     0.000
  T1                      5.26     0.835      0  02:54       3.905     0.000
  
  
  **********************
  Storage Volume Summary
  **********************
  
  --------------------------------------------------------------------------------------------------
                         Average     Avg  Evap Exfil       Maximum     Max    Time of Max    Maximum
                          Volume    Pcnt  Pcnt  Pcnt        Volume    Pcnt     Occurrence    Outflow
  Storage Unit           1000 m3    Full  Loss  Loss       1000 m3    Full    days hr:min        CMS
  --------------------------------------------------------------------------------------------------
  T5                       0.337      67     0     0         0.500     100       0  03:06      0.039
  T4                       0.152      30     0     0         0.308      62       0  03:37      0.062
  T6                       0.315      53     0     0         0.600     100       0  03:01      0.175
  T3                       1.571      60     0     0         2.346      90       0  05:36      0.180
  T2                       0.286      29     0     0         0.595      60       0  03:21      0.108
  T1                       0.530      76     0     0         0.700     100       0  02:34      0.271
  
  
  ***********************
  Outfall Loading Summary
  ***********************
  
  -----------------------------------------------------------
                         Flow       Avg       Max       Total
                         Freq      Flow      Flow      Volume
  Outfall Node           Pcnt       CMS       CMS    10^6 ltr
  -----------------------------------------------------------
  Out_to_WWTP           99.01     0.218     0.271       6.089
  -----------------------------------------------------------
  System                99.01     0.218     0.271       6.089
  
  
  ********************
  Link Flow Summary
  ********************
  
  -----------------------------------------------------------------------------
                                 Maximum  Time of Max   Maximum    Max/    Max/
                                  |Flow|   Occurrence   |Veloc|    Full    Full
  Link                 Type          CMS  days hr:min     m/sec    Flow   Depth
  -----------------------------------------------------------------------------
  C1                   CONDUIT     0.039     0  03:52      0.91    0.01    0.12
  C6                   CONDUIT     0.071     0  02:53      1.29    1.12    0.74
  C2                   CONDUIT     0.062     0  03:38      1.30    0.07    0.23
  C9                   CONDUIT     0.118     0  02:53      1.27    0.40    0.48
  C16                  CONDUIT     0.480     0  02:51      1.75    0.05    0.14
  C3                   CONDUIT     0.180     0  05:36      2.03    0.07    0.17
  C19                  CONDUIT     0.108     0  03:23      1.08    0.04    0.24
  C11                  CONDUIT     0.279     0  03:56      1.84    0.01    0.13
  C20                  CONDUIT     0.612     0  02:49      2.47    0.02    0.14
  C22                  CONDUIT     0.202     0  02:52      1.46    0.09    0.32
  C12                  CONDUIT     0.175     0  03:45      1.16    0.01    0.17
  C17                  CONDUIT     0.822     0  02:51      2.82    0.04    0.15
  C10                  CONDUIT     0.623     0  02:54      1.66    0.06    0.59
  C13                  CONDUIT     0.966     0  02:54      1.61    0.06    0.63
  C18                  CONDUIT     0.419     0  02:49      1.83    0.02    0.54
  C23                  CONDUIT     1.106     0  02:54      1.26    0.12    0.62
  C4                   CONDUIT     0.296     0  02:49      1.98    0.07    0.59
  C7                   CONDUIT     0.180     0  02:53      1.43    0.04    0.57
  C14                  CONDUIT     0.271     0  02:36      2.08    0.02    0.09
  C5                   CONDUIT     0.074     0  02:43      1.45    1.27    1.00
  C8                   CONDUIT     0.119     0  02:51      1.66    1.50    0.85
  C15                  CONDUIT     0.482     0  02:50      3.39    1.53    0.83
  C21                  CONDUIT     0.202     0  02:52      1.82    1.16    0.69
  V4                   ORIFICE     0.062     0  03:37                      1.00
  V5                   ORIFICE     0.039     0  03:06                      1.00
  V1                   ORIFICE     0.271     0  02:34                      1.00
  V6                   ORIFICE     0.175     0  03:01                      1.00
  V3                   ORIFICE     0.180     0  05:36                      1.00
  V2                   ORIFICE     0.108     0  03:21                      1.00
  
  
  ***************************
  Flow Classification Summary
  ***************************
  
  -------------------------------------------------------------------------------------
                      Adjusted    ---------- Fraction of Time in Flow Class ---------- 
                       /Actual         Up    Down  Sub   Sup   Up    Down  Norm  Inlet 
  Conduit               Length    Dry  Dry   Dry   Crit  Crit  Crit  Crit  Ltd   Ctrl  
  -------------------------------------------------------------------------------------
  C1                      1.00   0.00  0.00  0.00  0.92  0.08  0.00  0.00  0.95  0.00
  C6                      1.00   0.00  0.00  0.00  0.09  0.91  0.00  0.00  0.00  0.00
  C2                      1.00   0.00  0.00  0.00  0.06  0.94  0.00  0.00  0.94  0.00
  C9                      1.00   0.00  0.00  0.00  1.00  0.00  0.00  0.00  1.00  0.00
  C16                     1.00   0.00  0.00  0.00  0.54  0.46  0.00  0.00  0.42  0.00
  C3                      1.00   0.00  0.00  0.00  0.05  0.94  0.00  0.00  0.07  0.00
  C19                     1.00   0.00  0.00  0.00  1.00  0.00  0.00  0.00  1.00  0.00
  C11                     1.00   0.00  0.00  0.00  0.32  0.68  0.00  0.00  1.00  0.00
  C20                     1.00   0.00  0.00  0.00  0.62  0.38  0.00  0.00  0.98  0.00
  C22                     1.00   0.00  0.00  0.00  0.90  0.10  0.00  0.00  1.00  0.00
  C12                     1.00   0.00  0.00  0.00  0.94  0.06  0.00  0.00  1.00  0.00
  C17                     1.00   0.00  0.00  0.00  0.56  0.44  0.00  0.00  0.95  0.00
  C10                     1.00   0.00  0.00  0.00  0.94  0.06  0.00  0.00  0.97  0.00
  C13                     1.00   0.00  0.00  0.00  0.84  0.16  0.00  0.00  0.34  0.00
  C18                     1.00   0.00  0.00  0.00  0.84  0.16  0.00  0.00  0.97  0.00
  C23                     1.00   0.00  0.00  0.00  0.90  0.10  0.00  0.00  0.94  0.00
  C4                      1.00   0.00  0.00  0.00  0.96  0.04  0.00  0.00  0.98  0.00
  C7                      1.00   0.00  0.00  0.00  0.90  0.10  0.00  0.00  0.96  0.00
  C14                     1.00   0.00  0.00  0.00  0.00  0.99  0.00  0.00  0.00  0.00
  C5                      1.00   0.00  0.00  0.00  0.93  0.07  0.00  0.00  0.90  0.00
  C8                      1.00   0.00  0.00  0.00  0.10  0.90  0.00  0.00  0.00  0.00
  C15                     1.00   0.00  0.00  0.00  0.00  1.00  0.00  0.00  0.00  0.00
  C21                     1.00   0.00  0.00  0.00  0.00  1.00  0.00  0.00  0.00  0.00
  
  
  *************************
  Conduit Surcharge Summary
  *************************
  
  ----------------------------------------------------------------------------
                                                           Hours        Hours 
                         --------- Hours Full --------   Above Full   Capacity
  Conduit                Both Ends  Upstream  Dnstream   Normal Flow   Limited
  ----------------------------------------------------------------------------
  C6                          0.01      0.49      0.01      0.39         0.01
  C10                         0.01      0.01      5.58      0.01         0.01
  C13                         0.01      0.01      5.23      0.01         0.01
  C18                         0.01      0.01      2.36      0.01         0.01
  C23                         0.01      0.01      6.17      0.01         0.01
  C4                          0.01      0.01      6.18      0.01         0.01
  C7                          0.01      0.01      5.16      0.01         0.01
  C5                          0.51      0.52      0.61      0.57         0.48
  C8                          0.01      0.52      0.01      0.54         0.01
  C15                         0.01      0.48      0.01      0.54         0.01
  C21                         0.01      0.32      0.01      0.32         0.01
  

  Analysis begun on:  Fri Sep  3 19:04:16 2021
  Analysis ended on:  Fri Sep  3 19:04:16 2021
  Total elapsed time: < 1 sec