
  EPA STORM WATER MANAGEMENT MODEL - VERSION 5.1 (Build 5.3.0.dev0)
  --------------------------------------------------------------

  
  *********************************************************
  NOTE: The summary statistics displayed in this report are
  based on results found at every computational time step,  
  not just on results from each reporting time step.
  *********************************************************
  
  ****************
  Analysis Options
  ****************
  Flow Units ............... CMS
  Process Models:
    Rainfall/Runoff ........ YES
    RDII ................... NO
    Snowmelt ............... NO
    Groundwater ............ NO
    Flow Routing ........... YES
    Ponding Allowed ........ YES
    Water Quality .......... NO
  Infiltration Method ...... HORTON
  Flow Routing Method ...... DYNWAVE
  Surcharge Method ......... EXTRAN
  Starting Date ............ 08/28/2015 08:00:00
  Ending Date .............. 08/28/2015 15:50:00
  Antecedent Dry Days ...... 0.0
  Report Time Step ......... 00:01:00
  Wet Time Step ............ 00:01:00
  Dry Time Step ............ 00:01:00
  Routing Time Step ........ 5.00 sec
  Variable Time Step ....... YES
  Maximum Trials ........... 8
  Number of Threads ........ 1
  Head Tolerance ........... 0.001500 m
  
  
  **************************        Volume         Depth
  Runoff Quantity Continuity     hectare-m            mm
  **************************     ---------       -------
  Total Precipitation ......         2.080        11.542
  Evaporation Loss .........         0.000         0.000
  Infiltration Loss ........         0.000         0.000
  Surface Runoff ...........         2.056        11.412
  Final Storage ............         0.024         0.131
  Continuity Error (%) .....        -0.010
  
  
  **************************        Volume        Volume
  Flow Routing Continuity        hectare-m      10^6 ltr
  **************************     ---------     ---------
  Dry Weather Inflow .......         0.396         3.955
  Wet Weather Inflow .......         2.056        20.564
  Groundwater Inflow .......         0.000         0.000
  RDII Inflow ..............         0.000         0.000
  External Inflow ..........         0.000         0.000
  External Outflow .........         0.633         6.329
  Flooding Loss ............         0.994         9.938
  Evaporation Loss .........         0.000         0.000
  Exfiltration Loss ........         0.000         0.000
  Initial Stored Volume ....         0.000         0.000
  Final Stored Volume ......         0.672         6.717
  Continuity Error (%) .....         6.265
  
  
  *************************
  Highest Continuity Errors
  *************************
  Node T5 (16.99%)
  Node T3 (15.56%)
  Node T2 (9.11%)
  Node J12 (6.75%)
  Node T4 (6.38%)
  
  
  ***************************
  Time-Step Critical Elements
  ***************************
  None
  
  
  ********************************
  Highest Flow Instability Indexes
  ********************************
  All links are stable.
  
  
  *************************
  Routing Time Step Summary
  *************************
  Minimum Time Step           :     4.50 sec
  Average Time Step           :     5.00 sec
  Maximum Time Step           :     5.00 sec
  Percent in Steady State     :     0.00
  Average Iterations per Step :     2.27
  Percent Not Converging      :     0.71
  
  
  ***************************
  Subcatchment Runoff Summary
  ***************************
  
  ------------------------------------------------------------------------------------------------------------------------------
                            Total      Total      Total      Total     Imperv       Perv      Total       Total     Peak  Runoff
                           Precip      Runon       Evap      Infil     Runoff     Runoff     Runoff      Runoff   Runoff   Coeff
  Subcatchment                 mm         mm         mm         mm         mm         mm         mm    10^6 ltr      CMS
  ------------------------------------------------------------------------------------------------------------------------------
  SC01                      11.54       0.00       0.00       0.00      11.46       0.00      11.46        3.78     0.85   0.993
  SC02                      11.54       0.00       0.00       0.00      11.45       0.00      11.45        2.61     0.57   0.992
  SC03                      11.54       0.00       0.00       0.00      11.47       0.00      11.47        2.07     0.50   0.994
  SC04                      11.54       0.00       0.00       0.00      11.35       0.00      11.35        0.78     0.13   0.983
  SC05                      11.54       0.00       0.00       0.00      11.45       0.00      11.45        1.79     0.39   0.992
  SC06                      11.54       0.00       0.00       0.00      11.30       0.00      11.30        3.68     0.58   0.979
  SC07                      11.54       0.00       0.00       0.00      11.35       0.00      11.35        0.54     0.09   0.983
  SC08                      11.54       0.00       0.00       0.00      11.43       0.00      11.43        3.20     0.64   0.990
  SC09                      11.54       0.00       0.00       0.00      11.40       0.00      11.40        0.79     0.15   0.988
  SC010                     11.54       0.00       0.00       0.00      11.43       0.00      11.43        1.34     0.27   0.990
  
  
  ******************
  Node Depth Summary
  ******************
  
  ---------------------------------------------------------------------------------
                                 Average  Maximum  Maximum  Time of Max    Reported
                                   Depth    Depth      HGL   Occurrence   Max Depth
  Node                 Type       Meters   Meters   Meters  days hr:min      Meters
  ---------------------------------------------------------------------------------
  J1                   JUNCTION     0.08     0.21    34.21     0  01:33        0.21
  J3                   JUNCTION     0.14     0.17    18.17     0  03:32        0.17
  CSO7                 JUNCTION     0.29     1.20    35.20     0  01:28        1.20
  J5                   JUNCTION     0.07     0.15    32.15     0  01:41        0.15
  CSO9                 JUNCTION     0.32     2.00    42.00     0  01:27        2.00
  J8                   JUNCTION     0.13     0.28    36.28     0  01:44        0.28
  CSO8                 JUNCTION     0.33     2.00    34.00     0  01:25        2.00
  J10                  JUNCTION     0.11     0.30    29.30     0  01:32        0.30
  J13                  JUNCTION     0.07     0.20    29.20     0  01:33        0.20
  J15                  JUNCTION     0.23     0.37    15.37     0  01:38        0.37
  J16                  JUNCTION     0.08     0.23    30.23     0  01:32        0.23
  CSO10                JUNCTION     0.20     1.00    31.00     0  01:24        1.00
  J12                  JUNCTION     0.68     1.00    27.00     0  04:05        1.00
  J4                   JUNCTION     0.23     1.44    34.44     0  01:29        0.76
  J6                   JUNCTION     0.09     0.12    25.12     0  03:30        0.12
  J2                   JUNCTION     0.07     0.08    25.08     0  03:08        0.08
  J19                  JUNCTION     0.15     0.17     8.17     0  01:47        0.17
  J9                   JUNCTION     0.13     0.16    29.16     0  03:12        0.16
  J14                  JUNCTION     0.16     0.19    20.19     0  06:08        0.19
  J17                  JUNCTION     0.11     0.15    20.15     0  03:18        0.15
  J7                   JUNCTION     0.10     0.23    39.23     0  01:55        0.23
  J11                  JUNCTION     0.12     0.30    31.30     0  01:57        0.30
  J18                  JUNCTION     0.07     0.16    29.16     0  01:57        0.16
  Out_to_WWTP          OUTFALL      0.15     0.17     6.17     0  01:46        0.17
  T5                   STORAGE      3.77     5.00    32.00     0  02:10        5.00
  T4                   STORAGE      2.47     4.61    31.61     0  03:28        4.61
  T6                   STORAGE      3.05     5.00    36.00     0  02:03        5.00
  T3                   STORAGE      3.70     5.00    27.00     0  03:10        5.00
  T2                   STORAGE      2.47     4.61    25.61     0  03:17        4.61
  T1                   STORAGE      4.03     5.00    15.00     0  01:46        5.00
  
  
  *******************
  Node Inflow Summary
  *******************
  
  -------------------------------------------------------------------------------------------------
                                  Maximum  Maximum                  Lateral       Total        Flow
                                  Lateral    Total  Time of Max      Inflow      Inflow     Balance
                                   Inflow   Inflow   Occurrence      Volume      Volume       Error
  Node                 Type           CMS      CMS  days hr:min    10^6 ltr    10^6 ltr     Percent
  -------------------------------------------------------------------------------------------------
  J1                   JUNCTION     0.409    0.409     0  01:33        2.35        2.35      -0.002
  J3                   JUNCTION     0.000    0.305     0  03:30           0        6.51       0.755
  CSO7                 JUNCTION     0.101    0.101     0  01:40        0.83        0.83       0.063
  J5                   JUNCTION     0.137    0.208     0  01:40       0.911        1.68       0.041
  CSO9                 JUNCTION     0.154    0.154     0  01:37       0.983       0.983       0.044
  J8                   JUNCTION     0.606    0.733     0  01:43        4.62        5.57       0.041
  CSO8                 JUNCTION     0.654    0.654     0  01:35        3.49        3.49       0.010
  J10                  JUNCTION     0.517    1.001     0  01:31        2.45        5.74      -0.035
  J13                  JUNCTION     0.586    0.586     0  01:33        3.07        3.07      -0.270
  J15                  JUNCTION     0.000    1.248     0  01:34           0        14.7       0.795
  J16                  JUNCTION     0.866    0.866     0  01:32        4.33        4.33      -0.047
  CSO10                JUNCTION     0.278    0.278     0  01:35        1.48        1.48       0.013
  J12                  JUNCTION     0.000    1.072     0  01:33           0        9.26       7.235
  J4                   JUNCTION     0.000    0.081     0  01:28           0       0.775       0.412
  J6                   JUNCTION     0.000    0.076     0  03:28           0        1.44       0.364
  J2                   JUNCTION     0.000    0.039     0  02:10           0       0.898       0.586
  J19                  JUNCTION     0.000    0.271     0  01:46           0        6.34       0.199
  J9                   JUNCTION     0.000    0.175     0  02:03           0        3.53       0.528
  J14                  JUNCTION     0.000    0.190     0  03:10           0        4.19       0.239
  J17                  JUNCTION     0.000    0.134     0  03:17           0        2.53       0.439
  J7                   JUNCTION     0.000    0.127     0  01:55           0       0.954       0.332
  J11                  JUNCTION     0.000    0.486     0  01:56           0         3.3       0.203
  J18                  JUNCTION     0.000    0.202     0  01:57           0        1.39       0.017
  Out_to_WWTP          OUTFALL      0.000    0.271     0  01:48           0        6.33       0.000
  T5                   STORAGE      0.000    0.408     0  01:33           0        2.35      20.468
  T4                   STORAGE      0.000    0.208     0  01:41           0        1.68       6.819
  T6                   STORAGE      0.000    0.732     0  01:44           0        5.57       4.950
  T3                   STORAGE      0.000    1.062     0  01:36           0        8.63      18.422
  T2                   STORAGE      0.000    0.586     0  01:33           0        3.08      10.023
  T1                   STORAGE      0.000    1.234     0  01:38           0        14.6       5.973
  
  
  **********************
  Node Surcharge Summary
  **********************
  
  Surcharging occurs when water rises above the top of the highest conduit.
  ---------------------------------------------------------------------
                                               Max. Height   Min. Depth
                                   Hours       Above Crown    Below Rim
  Node                 Type      Surcharged         Meters       Meters
  ---------------------------------------------------------------------
  CSO7                 JUNCTION        1.74          0.945        0.000
  CSO9                 JUNCTION        1.74          1.682        0.000
  CSO8                 JUNCTION        1.28          1.547        0.000
  CSO10                JUNCTION        0.70          0.560        0.000
  J4                   JUNCTION        1.72          1.144        0.556
  
  
  *********************
  Node Flooding Summary
  *********************
  
  Flooding refers to all water that overflows a node, whether it ponds or not.
  --------------------------------------------------------------------------
                                                             Total   Maximum
                                 Maximum   Time of Max       Flood    Ponded
                        Hours       Rate    Occurrence      Volume     Depth
  Node                 Flooded       CMS   days hr:min    10^6 ltr    Meters
  --------------------------------------------------------------------------
  CSO7                    0.92     0.030      0  01:40       0.054     0.000
  CSO9                    0.47     0.027      0  01:37       0.029     0.000
  CSO8                    0.53     0.168      0  01:35       0.192     0.000
  CSO10                   0.54     0.076      0  01:35       0.088     0.000
  T5                      1.74     0.221      0  03:01       0.651     0.000
  T6                      1.69     0.481      0  02:03       1.603     0.000
  T3                      2.05     0.401      0  03:10       0.595     0.000
  T1                      6.06     0.920      0  01:46       6.727     0.000
  
  
  **********************
  Storage Volume Summary
  **********************
  
  --------------------------------------------------------------------------------------------------
                         Average     Avg  Evap Exfil       Maximum     Max    Time of Max    Maximum
                          Volume    Pcnt  Pcnt  Pcnt        Volume    Pcnt     Occurrence    Outflow
  Storage Unit           1000 m3    Full  Loss  Loss       1000 m3    Full    days hr:min        CMS
  --------------------------------------------------------------------------------------------------
  T5                       0.377      75     0     0         0.500     100       0  02:10      0.039
  T4                       0.247      49     0     0         0.461      92       0  03:28      0.076
  T6                       0.365      61     0     0         0.600     100       0  02:03      0.175
  T3                       1.924      74     0     0         2.600     100       0  03:10      0.190
  T2                       0.494      49     0     0         0.922      92       0  03:17      0.134
  T1                       0.565      81     0     0         0.700     100       0  01:46      0.271
  
  
  ***********************
  Outfall Loading Summary
  ***********************
  
  -----------------------------------------------------------
                         Flow       Avg       Max       Total
                         Freq      Flow      Flow      Volume
  Outfall Node           Pcnt       CMS       CMS    10^6 ltr
  -----------------------------------------------------------
  Out_to_WWTP           99.01     0.227     0.271       6.329
  -----------------------------------------------------------
  System                99.01     0.227     0.271       6.329
  
  
  ********************
  Link Flow Summary
  ********************
  
  -----------------------------------------------------------------------------
                                 Maximum  Time of Max   Maximum    Max/    Max/
                                  |Flow|   Occurrence   |Veloc|    Full    Full
  Link                 Type          CMS  days hr:min     m/sec    Flow   Depth
  -----------------------------------------------------------------------------
  C1                   CONDUIT     0.039     0  03:00      0.91    0.01    0.12
  C6                   CONDUIT     0.071     0  01:41      1.29    1.13    0.76
  C2                   CONDUIT     0.076     0  03:30      1.44    0.09    0.24
  C9                   CONDUIT     0.127     0  01:55      1.30    0.43    0.51
  C16                  CONDUIT     0.486     0  01:39      1.78    0.05    0.15
  C3                   CONDUIT     0.190     0  03:13      2.05    0.07    0.18
  C19                  CONDUIT     0.134     0  03:18      1.22    0.05    0.25
  C11                  CONDUIT     0.305     0  03:32      1.85    0.02    0.13
  C20                  CONDUIT     0.865     0  01:32      3.08    0.03    0.15
  C22                  CONDUIT     0.202     0  01:57      1.55    0.09    0.34
  C12                  CONDUIT     0.175     0  03:12      0.94    0.01    0.29
  C17                  CONDUIT     0.996     0  01:32      3.16    0.05    0.30
  C10                  CONDUIT     0.732     0  01:44      1.66    0.08    0.59
  C13                  CONDUIT     1.062     0  01:36      1.79    0.06    0.75
  C18                  CONDUIT     0.586     0  01:33      1.72    0.02    0.55
  C23                  CONDUIT     1.234     0  01:38      1.26    0.14    0.62
  C4                   CONDUIT     0.408     0  01:33      1.98    0.10    0.61
  C7                   CONDUIT     0.208     0  01:41      1.43    0.05    0.58
  C14                  CONDUIT     0.271     0  01:48      2.08    0.02    0.09
  C5                   CONDUIT     0.081     0  01:28      1.58    1.38    1.00
  C8                   CONDUIT     0.127     0  01:55      1.78    1.60    0.86
  C15                  CONDUIT     0.486     0  01:56      3.46    1.55    0.83
  C21                  CONDUIT     0.202     0  01:57      1.84    1.16    0.69
  V4                   ORIFICE     0.076     0  03:28                      1.00
  V5                   ORIFICE     0.039     0  02:10                      1.00
  V1                   ORIFICE     0.271     0  01:46                      1.00
  V6                   ORIFICE     0.175     0  02:03                      1.00
  V3                   ORIFICE     0.190     0  03:10                      1.00
  V2                   ORIFICE     0.134     0  03:17                      1.00
  
  
  ***************************
  Flow Classification Summary
  ***************************
  
  -------------------------------------------------------------------------------------
                      Adjusted    ---------- Fraction of Time in Flow Class ---------- 
                       /Actual         Up    Down  Sub   Sup   Up    Down  Norm  Inlet 
  Conduit               Length    Dry  Dry   Dry   Crit  Crit  Crit  Crit  Ltd   Ctrl  
  -------------------------------------------------------------------------------------
  C1                      1.00   0.00  0.00  0.00  0.92  0.08  0.00  0.00  0.95  0.00
  C6                      1.00   0.00  0.00  0.00  0.24  0.76  0.00  0.00  0.00  0.00
  C2                      1.00   0.00  0.00  0.00  0.01  0.99  0.00  0.00  0.94  0.00
  C9                      1.00   0.00  0.00  0.00  1.00  0.00  0.00  0.00  1.00  0.00
  C16                     1.00   0.00  0.00  0.00  0.55  0.45  0.00  0.00  0.45  0.00
  C3                      1.00   0.00  0.00  0.00  0.05  0.94  0.00  0.00  0.07  0.00
  C19                     1.00   0.00  0.00  0.00  0.66  0.34  0.00  0.00  1.00  0.00
  C11                     1.00   0.00  0.00  0.00  0.26  0.74  0.00  0.00  1.00  0.00
  C20                     1.00   0.00  0.00  0.00  0.63  0.37  0.00  0.00  0.98  0.00
  C22                     1.00   0.00  0.00  0.00  0.87  0.13  0.00  0.00  1.00  0.00
  C12                     1.00   0.00  0.00  0.00  0.94  0.06  0.00  0.00  1.00  0.00
  C17                     1.00   0.00  0.00  0.00  0.65  0.35  0.00  0.00  0.93  0.00
  C10                     1.00   0.00  0.00  0.00  0.94  0.06  0.00  0.00  0.97  0.00
  C13                     1.00   0.00  0.00  0.00  0.83  0.17  0.00  0.00  0.24  0.00
  C18                     1.00   0.00  0.00  0.00  0.83  0.17  0.00  0.00  0.97  0.00
  C23                     1.00   0.00  0.00  0.00  0.90  0.10  0.00  0.00  0.94  0.00
  C4                      1.00   0.00  0.00  0.00  0.96  0.04  0.00  0.00  0.98  0.00
  C7                      1.00   0.00  0.00  0.00  0.90  0.10  0.00  0.00  0.96  0.00
  C14                     1.00   0.00  0.00  0.00  0.00  0.99  0.00  0.00  0.00  0.00
  C5                      1.00   0.00  0.00  0.00  0.92  0.08  0.00  0.00  0.73  0.00
  C8                      1.00   0.00  0.00  0.00  0.23  0.77  0.00  0.00  0.00  0.00
  C15                     1.00   0.00  0.00  0.00  0.00  1.00  0.00  0.00  0.00  0.00
  C21                     1.00   0.00  0.00  0.00  0.01  0.99  0.00  0.00  0.00  0.00
  
  
  *************************
  Conduit Surcharge Summary
  *************************
  
  ----------------------------------------------------------------------------
                                                           Hours        Hours 
                         --------- Hours Full --------   Above Full   Capacity
  Conduit                Both Ends  Upstream  Dnstream   Normal Flow   Limited
  ----------------------------------------------------------------------------
  C6                          0.01      1.72      0.01      1.48         0.01
  C10                         0.01      0.01      6.13      0.01         0.01
  C13                         0.01      0.01      6.01      0.01         0.01
  C18                         0.01      0.01      4.96      0.01         0.01
  C23                         0.01      0.01      6.36      0.01         0.01
  C4                          0.01      0.01      6.40      0.01         0.01
  C7                          0.01      0.01      6.19      0.01         0.01
  C5                          1.72      1.74      1.81      1.75         1.68
  C8                          0.01      1.74      0.01      1.75         0.01
  C15                         0.01      1.28      0.01      1.46         0.01
  C21                         0.01      0.70      0.01      0.72         0.01
  

  Analysis begun on:  Fri Sep  3 19:05:52 2021
  Analysis ended on:  Fri Sep  3 19:05:52 2021
  Total elapsed time: < 1 sec