
  EPA STORM WATER MANAGEMENT MODEL - VERSION 5.1 (Build 5.3.0.dev0)
  --------------------------------------------------------------

  
  *********************************************************
  NOTE: The summary statistics displayed in this report are
  based on results found at every computational time step,  
  not just on results from each reporting time step.
  *********************************************************
  
  ****************
  Analysis Options
  ****************
  Flow Units ............... CMS
  Process Models:
    Rainfall/Runoff ........ YES
    RDII ................... NO
    Snowmelt ............... NO
    Groundwater ............ NO
    Flow Routing ........... YES
    Ponding Allowed ........ YES
    Water Quality .......... NO
  Infiltration Method ...... HORTON
  Flow Routing Method ...... DYNWAVE
  Surcharge Method ......... EXTRAN
  Starting Date ............ 08/28/2015 08:00:00
  Ending Date .............. 08/28/2015 15:50:00
  Antecedent Dry Days ...... 0.0
  Report Time Step ......... 00:01:00
  Wet Time Step ............ 00:01:00
  Dry Time Step ............ 00:01:00
  Routing Time Step ........ 5.00 sec
  Variable Time Step ....... YES
  Maximum Trials ........... 8
  Number of Threads ........ 1
  Head Tolerance ........... 0.001500 m
  
  
  **************************        Volume         Depth
  Runoff Quantity Continuity     hectare-m            mm
  **************************     ---------       -------
  Total Precipitation ......         1.942        10.774
  Evaporation Loss .........         0.000         0.000
  Infiltration Loss ........         0.000         0.000
  Surface Runoff ...........         1.918        10.645
  Final Storage ............         0.023         0.130
  Continuity Error (%) .....        -0.006
  
  
  **************************        Volume        Volume
  Flow Routing Continuity        hectare-m      10^6 ltr
  **************************     ---------     ---------
  Dry Weather Inflow .......         0.396         3.955
  Wet Weather Inflow .......         1.918        19.183
  Groundwater Inflow .......         0.000         0.000
  RDII Inflow ..............         0.000         0.000
  External Inflow ..........         0.000         0.000
  External Outflow .........         0.612         6.124
  Flooding Loss ............         0.882         8.821
  Evaporation Loss .........         0.000         0.000
  Exfiltration Loss ........         0.000         0.000
  Initial Stored Volume ....         0.000         0.000
  Final Stored Volume ......         0.667         6.665
  Continuity Error (%) .....         6.604
  
  
  *************************
  Highest Continuity Errors
  *************************
  Node T5 (17.80%)
  Node T3 (16.55%)
  Node T2 (9.06%)
  Node J12 (7.19%)
  Node T4 (6.31%)
  
  
  ***************************
  Time-Step Critical Elements
  ***************************
  None
  
  
  ********************************
  Highest Flow Instability Indexes
  ********************************
  All links are stable.
  
  
  *************************
  Routing Time Step Summary
  *************************
  Minimum Time Step           :     4.50 sec
  Average Time Step           :     5.00 sec
  Maximum Time Step           :     5.00 sec
  Percent in Steady State     :     0.00
  Average Iterations per Step :     2.20
  Percent Not Converging      :     0.57
  
  
  ***************************
  Subcatchment Runoff Summary
  ***************************
  
  ------------------------------------------------------------------------------------------------------------------------------
                            Total      Total      Total      Total     Imperv       Perv      Total       Total     Peak  Runoff
                           Precip      Runon       Evap      Infil     Runoff     Runoff     Runoff      Runoff   Runoff   Coeff
  Subcatchment                 mm         mm         mm         mm         mm         mm         mm    10^6 ltr      CMS
  ------------------------------------------------------------------------------------------------------------------------------
  SC01                      10.77       0.00       0.00       0.00      10.69       0.00      10.69        3.53     0.87   0.992
  SC02                      10.77       0.00       0.00       0.00      10.68       0.00      10.68        2.43     0.59   0.992
  SC03                      10.77       0.00       0.00       0.00      10.71       0.00      10.71        1.93     0.50   0.994
  SC04                      10.77       0.00       0.00       0.00      10.58       0.00      10.58        0.73     0.15   0.982
  SC05                      10.77       0.00       0.00       0.00      10.68       0.00      10.68        1.67     0.40   0.992
  SC06                      10.77       0.00       0.00       0.00      10.53       0.00      10.53        3.43     0.67   0.977
  SC07                      10.77       0.00       0.00       0.00      10.58       0.00      10.58        0.50     0.10   0.982
  SC08                      10.77       0.00       0.00       0.00      10.66       0.00      10.66        2.98     0.69   0.989
  SC09                      10.77       0.00       0.00       0.00      10.63       0.00      10.63        0.73     0.16   0.987
  SC010                     10.77       0.00       0.00       0.00      10.66       0.00      10.66        1.25     0.29   0.990
  
  
  ******************
  Node Depth Summary
  ******************
  
  ---------------------------------------------------------------------------------
                                 Average  Maximum  Maximum  Time of Max    Reported
                                   Depth    Depth      HGL   Occurrence   Max Depth
  Node                 Type       Meters   Meters   Meters  days hr:min      Meters
  ---------------------------------------------------------------------------------
  J1                   JUNCTION     0.08     0.22    34.22     0  02:14        0.22
  J3                   JUNCTION     0.14     0.17    18.17     0  03:43        0.17
  CSO7                 JUNCTION     0.25     1.20    35.20     0  02:01        1.20
  J5                   JUNCTION     0.07     0.16    32.16     0  02:19        0.16
  CSO9                 JUNCTION     0.32     2.00    42.00     0  02:05        2.00
  J8                   JUNCTION     0.12     0.30    36.30     0  02:21        0.30
  CSO8                 JUNCTION     0.33     2.00    34.00     0  02:03        2.00
  J10                  JUNCTION     0.11     0.30    29.30     0  02:14        0.30
  J13                  JUNCTION     0.07     0.21    29.21     0  02:14        0.21
  J15                  JUNCTION     0.22     0.39    15.39     0  02:19        0.39
  J16                  JUNCTION     0.08     0.23    30.23     0  02:14        0.23
  CSO10                JUNCTION     0.20     1.00    31.00     0  02:02        1.00
  J12                  JUNCTION     0.66     1.01    27.01     0  03:56        1.01
  J4                   JUNCTION     0.20     1.35    34.35     0  02:01        0.78
  J6                   JUNCTION     0.09     0.12    25.12     0  03:29        0.12
  J2                   JUNCTION     0.07     0.08    25.08     0  03:18        0.08
  J19                  JUNCTION     0.15     0.17     8.17     0  02:12        0.17
  J9                   JUNCTION     0.13     0.16    29.16     0  03:39        0.16
  J14                  JUNCTION     0.15     0.19    20.19     0  06:06        0.19
  J17                  JUNCTION     0.11     0.15    20.15     0  03:15        0.15
  J7                   JUNCTION     0.09     0.23    39.23     0  02:38        0.23
  J11                  JUNCTION     0.11     0.30    31.30     0  02:39        0.30
  J18                  JUNCTION     0.06     0.16    29.16     0  02:39        0.16
  Out_to_WWTP          OUTFALL      0.15     0.17     6.17     0  02:11        0.17
  T5                   STORAGE      3.55     5.00    32.00     0  02:27        5.00
  T4                   STORAGE      2.19     4.34    31.34     0  03:27        4.34
  T6                   STORAGE      2.81     5.00    36.00     0  02:26        5.00
  T3                   STORAGE      3.52     5.00    27.00     0  03:40        5.00
  T2                   STORAGE      2.25     4.52    25.52     0  03:14        4.52
  T1                   STORAGE      3.85     5.00    15.00     0  02:10        5.00
  
  
  *******************
  Node Inflow Summary
  *******************
  
  -------------------------------------------------------------------------------------------------
                                  Maximum  Maximum                  Lateral       Total        Flow
                                  Lateral    Total  Time of Max      Inflow      Inflow     Balance
                                   Inflow   Inflow   Occurrence      Volume      Volume       Error
  Node                 Type           CMS      CMS  days hr:min    10^6 ltr    10^6 ltr     Percent
  -------------------------------------------------------------------------------------------------
  J1                   JUNCTION     0.425    0.425     0  02:14        2.23        2.23       0.013
  J3                   JUNCTION     0.000    0.303     0  03:34           0        6.21       0.783
  CSO7                 JUNCTION     0.115    0.115     0  02:18       0.793       0.793       0.058
  J5                   JUNCTION     0.156    0.228     0  02:18       0.858        1.56       0.068
  CSO9                 JUNCTION     0.170    0.170     0  02:16        0.93        0.93       0.043
  J8                   JUNCTION     0.708    0.836     0  02:20        4.37        5.24       0.067
  CSO8                 JUNCTION     0.701    0.701     0  02:15        3.28        3.28       0.013
  J10                  JUNCTION     0.514    1.001     0  02:13        2.31        5.32      -0.024
  J13                  JUNCTION     0.608    0.608     0  02:14         2.9         2.9      -0.207
  J15                  JUNCTION     0.000    1.372     0  02:15           0        13.9       0.838
  J16                  JUNCTION     0.890    0.890     0  02:14        4.08        4.08      -0.031
  CSO10                JUNCTION     0.297    0.297     0  02:15        1.39        1.39       0.015
  J12                  JUNCTION     0.000    1.133     0  02:15           0        8.69       7.753
  J4                   JUNCTION     0.000    0.075     0  02:01           0       0.706       0.475
  J6                   JUNCTION     0.000    0.074     0  03:27           0        1.34       0.379
  J2                   JUNCTION     0.000    0.039     0  02:28           0       0.862       0.612
  J19                  JUNCTION     0.000    0.271     0  02:11           0        6.14       0.206
  J9                   JUNCTION     0.000    0.175     0  02:26           0        3.35       0.537
  J14                  JUNCTION     0.000    0.190     0  03:40           0        4.03       0.249
  J17                  JUNCTION     0.000    0.133     0  03:14           0        2.38       0.452
  J7                   JUNCTION     0.000    0.127     0  02:38           0       0.879       0.356
  J11                  JUNCTION     0.000    0.486     0  02:39           0        3.02       0.209
  J18                  JUNCTION     0.000    0.202     0  02:38           0        1.28       0.031
  Out_to_WWTP          OUTFALL      0.000    0.271     0  02:12           0        6.12       0.000
  T5                   STORAGE      0.000    0.425     0  02:14           0        2.23      21.659
  T4                   STORAGE      0.000    0.228     0  02:19           0        1.56       6.735
  T6                   STORAGE      0.000    0.835     0  02:21           0        5.24       5.231
  T3                   STORAGE      0.000    1.125     0  02:17           0        8.06      19.833
  T2                   STORAGE      0.000    0.608     0  02:14           0         2.9       9.966
  T1                   STORAGE      0.000    1.358     0  02:19           0        13.8       6.391
  
  
  **********************
  Node Surcharge Summary
  **********************
  
  Surcharging occurs when water rises above the top of the highest conduit.
  ---------------------------------------------------------------------
                                               Max. Height   Min. Depth
                                   Hours       Above Crown    Below Rim
  Node                 Type      Surcharged         Meters       Meters
  ---------------------------------------------------------------------
  CSO7                 JUNCTION        1.17          0.945        0.000
  CSO9                 JUNCTION        1.20          1.682        0.000
  CSO8                 JUNCTION        1.18          1.547        0.000
  CSO10                JUNCTION        0.87          0.560        0.000
  J4                   JUNCTION        1.15          1.055        0.645
  
  
  *********************
  Node Flooding Summary
  *********************
  
  Flooding refers to all water that overflows a node, whether it ponds or not.
  --------------------------------------------------------------------------
                                                             Total   Maximum
                                 Maximum   Time of Max       Flood    Ponded
                        Hours       Rate    Occurrence      Volume     Depth
  Node                 Flooded       CMS   days hr:min    10^6 ltr    Meters
  --------------------------------------------------------------------------
  CSO7                    1.00     0.044      0  02:18       0.086     0.000
  CSO9                    0.56     0.043      0  02:16       0.051     0.000
  CSO8                    0.60     0.215      0  02:15       0.260     0.000
  CSO10                   0.62     0.095      0  02:15       0.117     0.000
  T5                      1.39     0.311      0  02:27       0.569     0.000
  T6                      1.29     0.648      0  02:26       1.459     0.000
  T3                      0.95     0.302      0  03:40       0.168     0.000
  T1                      5.65     1.087      0  02:19       6.111     0.000
  
  
  **********************
  Storage Volume Summary
  **********************
  
  --------------------------------------------------------------------------------------------------
                         Average     Avg  Evap Exfil       Maximum     Max    Time of Max    Maximum
                          Volume    Pcnt  Pcnt  Pcnt        Volume    Pcnt     Occurrence    Outflow
  Storage Unit           1000 m3    Full  Loss  Loss       1000 m3    Full    days hr:min        CMS
  --------------------------------------------------------------------------------------------------
  T5                       0.355      71     0     0         0.500     100       0  02:27      0.039
  T4                       0.219      44     0     0         0.434      87       0  03:27      0.074
  T6                       0.337      56     0     0         0.600     100       0  02:26      0.175
  T3                       1.829      70     0     0         2.600     100       0  03:40      0.288
  T2                       0.451      45     0     0         0.903      90       0  03:14      0.133
  T1                       0.539      77     0     0         0.700     100       0  02:10      0.271
  
  
  ***********************
  Outfall Loading Summary
  ***********************
  
  -----------------------------------------------------------
                         Flow       Avg       Max       Total
                         Freq      Flow      Flow      Volume
  Outfall Node           Pcnt       CMS       CMS    10^6 ltr
  -----------------------------------------------------------
  Out_to_WWTP           99.01     0.219     0.271       6.124
  -----------------------------------------------------------
  System                99.01     0.219     0.271       6.124
  
  
  ********************
  Link Flow Summary
  ********************
  
  -----------------------------------------------------------------------------
                                 Maximum  Time of Max   Maximum    Max/    Max/
                                  |Flow|   Occurrence   |Veloc|    Full    Full
  Link                 Type          CMS  days hr:min     m/sec    Flow   Depth
  -----------------------------------------------------------------------------
  C1                   CONDUIT     0.039     0  03:18      0.91    0.01    0.12
  C6                   CONDUIT     0.072     0  02:19      1.29    1.14    0.77
  C2                   CONDUIT     0.074     0  03:29      1.42    0.08    0.24
  C9                   CONDUIT     0.127     0  02:38      1.29    0.43    0.53
  C16                  CONDUIT     0.489     0  02:09      1.79    0.05    0.15
  C3                   CONDUIT     0.190     0  03:42      2.06    0.07    0.18
  C19                  CONDUIT     0.133     0  03:15      1.21    0.05    0.26
  C11                  CONDUIT     0.302     0  03:43      1.85    0.01    0.13
  C20                  CONDUIT     0.889     0  02:14      2.92    0.03    0.15
  C22                  CONDUIT     0.202     0  02:38      1.50    0.09    0.35
  C12                  CONDUIT     0.175     0  03:39      0.83    0.01    0.29
  C17                  CONDUIT     0.997     0  02:14      3.04    0.05    0.28
  C10                  CONDUIT     0.835     0  02:21      1.66    0.09    0.60
  C13                  CONDUIT     1.125     0  02:17      1.53    0.07    0.75
  C18                  CONDUIT     0.608     0  02:14      1.72    0.02    0.55
  C23                  CONDUIT     1.358     0  02:19      1.26    0.15    0.63
  C4                   CONDUIT     0.425     0  02:14      1.98    0.10    0.61
  C7                   CONDUIT     0.228     0  02:19      1.43    0.06    0.58
  C14                  CONDUIT     0.271     0  02:12      2.08    0.02    0.09
  C5                   CONDUIT     0.075     0  02:01      1.46    1.28    1.00
  C8                   CONDUIT     0.127     0  02:38      1.76    1.60    0.86
  C15                  CONDUIT     0.486     0  02:39      3.43    1.55    0.83
  C21                  CONDUIT     0.202     0  02:38      1.83    1.16    0.69
  V4                   ORIFICE     0.074     0  03:27                      1.00
  V5                   ORIFICE     0.039     0  02:28                      1.00
  V1                   ORIFICE     0.271     0  02:11                      1.00
  V6                   ORIFICE     0.175     0  02:26                      1.00
  V3                   ORIFICE     0.190     0  03:40                      1.00
  V2                   ORIFICE     0.133     0  03:14                      1.00
  
  
  ***************************
  Flow Classification Summary
  ***************************
  
  -------------------------------------------------------------------------------------
                      Adjusted    ---------- Fraction of Time in Flow Class ---------- 
                       /Actual         Up    Down  Sub   Sup   Up    Down  Norm  Inlet 
  Conduit               Length    Dry  Dry   Dry   Crit  Crit  Crit  Crit  Ltd   Ctrl  
  -------------------------------------------------------------------------------------
  C1                      1.00   0.00  0.00  0.00  0.92  0.08  0.00  0.00  0.95  0.00
  C6                      1.00   0.00  0.00  0.00  0.17  0.83  0.00  0.00  0.00  0.00
  C2                      1.00   0.00  0.00  0.00  0.01  0.99  0.00  0.00  0.94  0.00
  C9                      1.00   0.00  0.00  0.00  1.00  0.00  0.00  0.00  1.00  0.00
  C16                     1.00   0.00  0.00  0.00  0.56  0.44  0.00  0.00  0.48  0.00
  C3                      1.00   0.00  0.00  0.00  0.05  0.94  0.00  0.00  0.07  0.00
  C19                     1.00   0.00  0.00  0.00  0.69  0.31  0.00  0.00  1.00  0.00
  C11                     1.00   0.00  0.00  0.00  0.29  0.70  0.00  0.00  1.00  0.00
  C20                     1.00   0.00  0.00  0.00  0.64  0.36  0.00  0.00  0.98  0.00
  C22                     1.00   0.00  0.00  0.00  0.86  0.14  0.00  0.00  1.00  0.00
  C12                     1.00   0.00  0.00  0.00  0.93  0.06  0.00  0.00  1.00  0.00
  C17                     1.00   0.00  0.00  0.00  0.63  0.37  0.00  0.00  0.96  0.00
  C10                     1.00   0.00  0.00  0.00  0.94  0.06  0.00  0.00  0.97  0.00
  C13                     1.00   0.00  0.00  0.00  0.83  0.17  0.00  0.00  0.26  0.00
  C18                     1.00   0.00  0.00  0.00  0.82  0.18  0.00  0.00  0.97  0.00
  C23                     1.00   0.00  0.00  0.00  0.90  0.10  0.00  0.00  0.94  0.00
  C4                      1.00   0.00  0.00  0.00  0.96  0.04  0.00  0.00  0.98  0.00
  C7                      1.00   0.00  0.00  0.00  0.91  0.09  0.00  0.00  0.96  0.00
  C14                     1.00   0.00  0.00  0.00  0.00  0.99  0.00  0.00  0.00  0.00
  C5                      1.00   0.00  0.00  0.00  0.90  0.10  0.00  0.00  0.83  0.00
  C8                      1.00   0.00  0.00  0.00  0.18  0.82  0.00  0.00  0.00  0.00
  C15                     1.00   0.00  0.00  0.00  0.00  1.00  0.00  0.00  0.00  0.00
  C21                     1.00   0.00  0.00  0.00  0.01  0.99  0.00  0.00  0.00  0.00
  
  
  *************************
  Conduit Surcharge Summary
  *************************
  
  ----------------------------------------------------------------------------
                                                           Hours        Hours 
                         --------- Hours Full --------   Above Full   Capacity
  Conduit                Both Ends  Upstream  Dnstream   Normal Flow   Limited
  ----------------------------------------------------------------------------
  C6                          0.01      1.15      0.01      1.05         0.01
  C10                         0.01      0.01      5.73      0.01         0.01
  C13                         0.01      0.01      5.62      0.01         0.01
  C18                         0.01      0.01      4.38      0.01         0.01
  C23                         0.01      0.01      6.11      0.01         0.01
  C4                          0.01      0.01      6.15      0.01         0.01
  C7                          0.01      0.01      5.80      0.01         0.01
  C5                          1.17      1.17      1.26      1.22         1.13
  C8                          0.01      1.20      0.01      1.22         0.01
  C15                         0.01      1.18      0.01      1.25         0.01
  C21                         0.01      0.87      0.01      0.82         0.01
  

  Analysis begun on:  Fri Sep  3 19:08:54 2021
  Analysis ended on:  Fri Sep  3 19:08:54 2021
  Total elapsed time: < 1 sec