
  EPA STORM WATER MANAGEMENT MODEL - VERSION 5.1 (Build 5.3.0.dev0)
  --------------------------------------------------------------

  
  *********************************************************
  NOTE: The summary statistics displayed in this report are
  based on results found at every computational time step,  
  not just on results from each reporting time step.
  *********************************************************
  
  ****************
  Analysis Options
  ****************
  Flow Units ............... CMS
  Process Models:
    Rainfall/Runoff ........ YES
    RDII ................... NO
    Snowmelt ............... NO
    Groundwater ............ NO
    Flow Routing ........... YES
    Ponding Allowed ........ YES
    Water Quality .......... NO
  Infiltration Method ...... HORTON
  Flow Routing Method ...... DYNWAVE
  Surcharge Method ......... EXTRAN
  Starting Date ............ 08/28/2015 08:00:00
  Ending Date .............. 08/28/2015 15:50:00
  Antecedent Dry Days ...... 0.0
  Report Time Step ......... 00:01:00
  Wet Time Step ............ 00:01:00
  Dry Time Step ............ 00:01:00
  Routing Time Step ........ 5.00 sec
  Variable Time Step ....... YES
  Maximum Trials ........... 8
  Number of Threads ........ 1
  Head Tolerance ........... 0.001500 m
  
  
  **************************        Volume         Depth
  Runoff Quantity Continuity     hectare-m            mm
  **************************     ---------       -------
  Total Precipitation ......         1.824        10.122
  Evaporation Loss .........         0.000         0.000
  Infiltration Loss ........         0.000         0.000
  Surface Runoff ...........         1.800         9.990
  Final Storage ............         0.024         0.133
  Continuity Error (%) .....        -0.007
  
  
  **************************        Volume        Volume
  Flow Routing Continuity        hectare-m      10^6 ltr
  **************************     ---------     ---------
  Dry Weather Inflow .......         0.396         3.955
  Wet Weather Inflow .......         1.800        18.002
  Groundwater Inflow .......         0.000         0.000
  RDII Inflow ..............         0.000         0.000
  External Inflow ..........         0.000         0.000
  External Outflow .........         0.601         6.011
  Flooding Loss ............         0.782         7.816
  Evaporation Loss .........         0.000         0.000
  Exfiltration Loss ........         0.000         0.000
  Initial Stored Volume ....         0.000         0.000
  Final Stored Volume ......         0.660         6.596
  Continuity Error (%) .....         6.991
  
  
  *************************
  Highest Continuity Errors
  *************************
  Node T5 (18.87%)
  Node T3 (16.87%)
  Node T2 (9.17%)
  Node J12 (6.95%)
  Node T4 (6.53%)
  
  
  ***************************
  Time-Step Critical Elements
  ***************************
  None
  
  
  ********************************
  Highest Flow Instability Indexes
  ********************************
  Link C13 (2)
  
  
  *************************
  Routing Time Step Summary
  *************************
  Minimum Time Step           :     4.50 sec
  Average Time Step           :     5.00 sec
  Maximum Time Step           :     5.00 sec
  Percent in Steady State     :     0.00
  Average Iterations per Step :     2.18
  Percent Not Converging      :     0.59
  
  
  ***************************
  Subcatchment Runoff Summary
  ***************************
  
  ------------------------------------------------------------------------------------------------------------------------------
                            Total      Total      Total      Total     Imperv       Perv      Total       Total     Peak  Runoff
                           Precip      Runon       Evap      Infil     Runoff     Runoff     Runoff      Runoff   Runoff   Coeff
  Subcatchment                 mm         mm         mm         mm         mm         mm         mm    10^6 ltr      CMS
  ------------------------------------------------------------------------------------------------------------------------------
  SC01                      10.12       0.00       0.00       0.00      10.04       0.00      10.04        3.31     0.91   0.991
  SC02                      10.12       0.00       0.00       0.00      10.03       0.00      10.03        2.28     0.62   0.991
  SC03                      10.12       0.00       0.00       0.00      10.05       0.00      10.05        1.81     0.52   0.993
  SC04                      10.12       0.00       0.00       0.00       9.92       0.00       9.92        0.68     0.16   0.980
  SC05                      10.12       0.00       0.00       0.00      10.03       0.00      10.03        1.56     0.42   0.991
  SC06                      10.12       0.00       0.00       0.00       9.87       0.00       9.87        3.21     0.73   0.975
  SC07                      10.12       0.00       0.00       0.00       9.93       0.00       9.93        0.47     0.11   0.981
  SC08                      10.12       0.00       0.00       0.00      10.00       0.00      10.00        2.80     0.73   0.988
  SC09                      10.12       0.00       0.00       0.00       9.98       0.00       9.98        0.69     0.17   0.986
  SC010                     10.12       0.00       0.00       0.00      10.01       0.00      10.01        1.18     0.31   0.989
  
  
  ******************
  Node Depth Summary
  ******************
  
  ---------------------------------------------------------------------------------
                                 Average  Maximum  Maximum  Time of Max    Reported
                                   Depth    Depth      HGL   Occurrence   Max Depth
  Node                 Type       Meters   Meters   Meters  days hr:min      Meters
  ---------------------------------------------------------------------------------
  J1                   JUNCTION     0.08     0.22    34.22     0  02:47        0.22
  J3                   JUNCTION     0.13     0.17    18.17     0  03:53        0.17
  CSO7                 JUNCTION     0.21     1.20    35.20     0  02:27        1.20
  J5                   JUNCTION     0.07     0.16    32.16     0  02:51        0.16
  CSO9                 JUNCTION     0.27     2.00    42.00     0  02:35        2.00
  J8                   JUNCTION     0.12     0.31    36.31     0  02:52        0.31
  CSO8                 JUNCTION     0.29     2.00    34.00     0  02:33        2.00
  J10                  JUNCTION     0.11     0.31    29.31     0  02:47        0.31
  J13                  JUNCTION     0.07     0.21    29.21     0  02:47        0.21
  J15                  JUNCTION     0.22     0.41    15.41     0  02:51        0.41
  J16                  JUNCTION     0.07     0.23    30.23     0  02:47        0.23
  CSO10                JUNCTION     0.18     1.00    31.00     0  02:33        1.00
  J12                  JUNCTION     0.58     0.94    26.94     0  05:22        0.94
  J4                   JUNCTION     0.18     1.22    34.22     0  02:27        0.76
  J6                   JUNCTION     0.09     0.12    25.12     0  03:39        0.12
  J2                   JUNCTION     0.07     0.08    25.08     0  03:40        0.08
  J19                  JUNCTION     0.14     0.17     8.17     0  02:30        0.17
  J9                   JUNCTION     0.13     0.16    29.16     0  03:53        0.16
  J14                  JUNCTION     0.15     0.19    20.19     0  06:09        0.19
  J17                  JUNCTION     0.11     0.14    20.14     0  03:22        0.14
  J7                   JUNCTION     0.09     0.23    39.23     0  03:04        0.23
  J11                  JUNCTION     0.11     0.30    31.30     0  03:04        0.30
  J18                  JUNCTION     0.06     0.16    29.16     0  03:04        0.16
  Out_to_WWTP          OUTFALL      0.14     0.17     6.17     0  02:28        0.17
  T5                   STORAGE      3.40     5.00    32.00     0  02:49        5.00
  T4                   STORAGE      2.00     4.08    31.08     0  03:38        4.08
  T6                   STORAGE      2.71     5.00    36.00     0  02:48        5.00
  T3                   STORAGE      3.31     4.95    26.95     0  05:17        4.95
  T2                   STORAGE      2.04     4.28    25.28     0  03:21        4.28
  T1                   STORAGE      3.74     5.00    15.00     0  02:28        5.00
  
  
  *******************
  Node Inflow Summary
  *******************
  
  -------------------------------------------------------------------------------------------------
                                  Maximum  Maximum                  Lateral       Total        Flow
                                  Lateral    Total  Time of Max      Inflow      Inflow     Balance
                                   Inflow   Inflow   Occurrence      Volume      Volume       Error
  Node                 Type           CMS      CMS  days hr:min    10^6 ltr    10^6 ltr     Percent
  -------------------------------------------------------------------------------------------------
  J1                   JUNCTION     0.444    0.444     0  02:47        2.13        2.13       0.018
  J3                   JUNCTION     0.000    0.298     0  03:52           0        5.97       0.810
  CSO7                 JUNCTION     0.123    0.123     0  02:50       0.762       0.762       0.060
  J5                   JUNCTION     0.167    0.239     0  02:51       0.812        1.49       0.079
  CSO9                 JUNCTION     0.180    0.180     0  02:49       0.885       0.885       0.053
  J8                   JUNCTION     0.764    0.891     0  02:52        4.15        4.98       0.080
  CSO8                 JUNCTION     0.737    0.737     0  02:48        3.09        3.09       0.017
  J10                  JUNCTION     0.536    1.022     0  02:46         2.2        4.99      -0.006
  J13                  JUNCTION     0.636    0.636     0  02:47        2.75        2.75      -0.189
  J15                  JUNCTION     0.000    1.468     0  02:48           0        13.2       0.879
  J16                  JUNCTION     0.930    0.930     0  02:47        3.87        3.87      -0.030
  CSO10                JUNCTION     0.312    0.312     0  02:48        1.32        1.32       0.025
  J12                  JUNCTION     0.000    1.186     0  02:47           0        8.42       7.473
  J4                   JUNCTION     0.000    0.072     0  02:51           0       0.683       0.493
  J6                   JUNCTION     0.000    0.072     0  03:38           0        1.27       0.398
  J2                   JUNCTION     0.000    0.039     0  02:49           0        0.84       0.632
  J19                  JUNCTION     0.000    0.271     0  02:28           0        6.02       0.210
  J9                   JUNCTION     0.000    0.175     0  02:48           0        3.28       0.563
  J14                  JUNCTION     0.000    0.189     0  05:17           0        3.88       0.257
  J17                  JUNCTION     0.000    0.130     0  03:21           0        2.25       0.470
  J7                   JUNCTION     0.000    0.127     0  03:04           0       0.825       0.378
  J11                  JUNCTION     0.000    0.486     0  02:37           0         2.8       0.226
  J18                  JUNCTION     0.000    0.202     0  03:04           0        1.19       0.040
  Out_to_WWTP          OUTFALL      0.000    0.271     0  02:30           0        6.01       0.000
  T5                   STORAGE      0.000    0.444     0  02:47           0        2.13      23.266
  T4                   STORAGE      0.000    0.239     0  02:51           0        1.49       6.983
  T6                   STORAGE      0.000    0.891     0  02:52           0        4.97       5.908
  T3                   STORAGE      0.000    1.178     0  02:50           0        7.83      20.299
  T2                   STORAGE      0.000    0.636     0  02:47           0        2.75      10.099
  T1                   STORAGE      0.000    1.453     0  02:51           0        13.1       6.764
  
  
  **********************
  Node Surcharge Summary
  **********************
  
  Surcharging occurs when water rises above the top of the highest conduit.
  ---------------------------------------------------------------------
                                               Max. Height   Min. Depth
                                   Hours       Above Crown    Below Rim
  Node                 Type      Surcharged         Meters       Meters
  ---------------------------------------------------------------------
  CSO7                 JUNCTION        0.91          0.945        0.000
  CSO9                 JUNCTION        0.93          1.682        0.000
  CSO8                 JUNCTION        0.87          1.547        0.000
  CSO10                JUNCTION        0.62          0.560        0.000
  J4                   JUNCTION        0.88          0.918        0.782
  
  
  *********************
  Node Flooding Summary
  *********************
  
  Flooding refers to all water that overflows a node, whether it ponds or not.
  --------------------------------------------------------------------------
                                                             Total   Maximum
                                 Maximum   Time of Max       Flood    Ponded
                        Hours       Rate    Occurrence      Volume     Depth
  Node                 Flooded       CMS   days hr:min    10^6 ltr    Meters
  --------------------------------------------------------------------------
  CSO7                    0.73     0.051      0  02:50       0.078     0.000
  CSO9                    0.48     0.053      0  02:49       0.059     0.000
  CSO8                    0.50     0.251      0  02:48       0.288     0.000
  CSO10                   0.52     0.110      0  02:48       0.128     0.000
  T5                      1.15     0.402      0  02:49       0.483     0.000
  T6                      1.08     0.716      0  02:52       1.233     0.000
  T1                      5.36     1.183      0  02:51       5.547     0.000
  
  
  **********************
  Storage Volume Summary
  **********************
  
  --------------------------------------------------------------------------------------------------
                         Average     Avg  Evap Exfil       Maximum     Max    Time of Max    Maximum
                          Volume    Pcnt  Pcnt  Pcnt        Volume    Pcnt     Occurrence    Outflow
  Storage Unit           1000 m3    Full  Loss  Loss       1000 m3    Full    days hr:min        CMS
  --------------------------------------------------------------------------------------------------
  T5                       0.340      68     0     0         0.500     100       0  02:49      0.039
  T4                       0.200      40     0     0         0.408      82       0  03:38      0.072
  T6                       0.326      54     0     0         0.600     100       0  02:48      0.175
  T3                       1.722      66     0     0         2.573      99       0  05:17      0.374
  T2                       0.407      41     0     0         0.856      86       0  03:21      0.130
  T1                       0.524      75     0     0         0.700     100       0  02:28      0.271
  
  
  ***********************
  Outfall Loading Summary
  ***********************
  
  -----------------------------------------------------------
                         Flow       Avg       Max       Total
                         Freq      Flow      Flow      Volume
  Outfall Node           Pcnt       CMS       CMS    10^6 ltr
  -----------------------------------------------------------
  Out_to_WWTP           99.01     0.215     0.271       6.011
  -----------------------------------------------------------
  System                99.01     0.215     0.271       6.011
  
  
  ********************
  Link Flow Summary
  ********************
  
  -----------------------------------------------------------------------------
                                 Maximum  Time of Max   Maximum    Max/    Max/
                                  |Flow|   Occurrence   |Veloc|    Full    Full
  Link                 Type          CMS  days hr:min     m/sec    Flow   Depth
  -----------------------------------------------------------------------------
  C1                   CONDUIT     0.039     0  03:40      0.91    0.01    0.12
  C6                   CONDUIT     0.072     0  02:51      1.29    1.14    0.77
  C2                   CONDUIT     0.072     0  03:39      1.40    0.08    0.24
  C9                   CONDUIT     0.127     0  03:04      1.28    0.43    0.54
  C16                  CONDUIT     0.489     0  02:41      1.79    0.05    0.15
  C3                   CONDUIT     0.189     0  05:18      2.05    0.07    0.18
  C19                  CONDUIT     0.130     0  03:23      1.19    0.04    0.27
  C11                  CONDUIT     0.297     0  03:53      1.85    0.01    0.14
  C20                  CONDUIT     0.929     0  02:47      2.92    0.03    0.16
  C22                  CONDUIT     0.202     0  03:04      1.47    0.09    0.36
  C12                  CONDUIT     0.175     0  03:51      0.78    0.01    0.27
  C17                  CONDUIT     1.019     0  02:47      3.02    0.05    0.25
  C10                  CONDUIT     0.891     0  02:52      1.66    0.09    0.60
  C13                  CONDUIT     1.178     0  02:50      1.53    0.07    0.74
  C18                  CONDUIT     0.636     0  02:47      1.72    0.02    0.55
  C23                  CONDUIT     1.453     0  02:51      1.26    0.16    0.64
  C4                   CONDUIT     0.444     0  02:47      1.98    0.11    0.61
  C7                   CONDUIT     0.239     0  02:51      1.43    0.06    0.58
  C14                  CONDUIT     0.271     0  02:30      2.08    0.02    0.09
  C5                   CONDUIT     0.072     0  02:51      1.40    1.22    1.00
  C8                   CONDUIT     0.127     0  03:04      1.75    1.60    0.86
  C15                  CONDUIT     0.486     0  02:37      3.42    1.55    0.83
  C21                  CONDUIT     0.202     0  03:04      1.83    1.16    0.69
  V4                   ORIFICE     0.072     0  03:38                      1.00
  V5                   ORIFICE     0.039     0  02:49                      1.00
  V1                   ORIFICE     0.271     0  02:28                      1.00
  V6                   ORIFICE     0.175     0  02:48                      1.00
  V3                   ORIFICE     0.189     0  05:17                      1.00
  V2                   ORIFICE     0.130     0  03:21                      1.00
  
  
  ***************************
  Flow Classification Summary
  ***************************
  
  -------------------------------------------------------------------------------------
                      Adjusted    ---------- Fraction of Time in Flow Class ---------- 
                       /Actual         Up    Down  Sub   Sup   Up    Down  Norm  Inlet 
  Conduit               Length    Dry  Dry   Dry   Crit  Crit  Crit  Crit  Ltd   Ctrl  
  -------------------------------------------------------------------------------------
  C1                      1.00   0.00  0.00  0.00  0.92  0.08  0.00  0.00  0.95  0.00
  C6                      1.00   0.00  0.00  0.00  0.14  0.86  0.00  0.00  0.00  0.00
  C2                      1.00   0.00  0.00  0.00  0.01  0.99  0.00  0.00  0.94  0.00
  C9                      1.00   0.00  0.00  0.00  1.00  0.00  0.00  0.00  1.00  0.00
  C16                     1.00   0.00  0.00  0.00  0.55  0.45  0.00  0.00  0.41  0.00
  C3                      1.00   0.00  0.00  0.00  0.05  0.94  0.00  0.00  0.07  0.00
  C19                     1.00   0.00  0.00  0.00  0.72  0.28  0.00  0.00  1.00  0.00
  C11                     1.00   0.00  0.00  0.00  0.31  0.69  0.00  0.00  1.00  0.00
  C20                     1.00   0.00  0.00  0.00  0.63  0.37  0.00  0.00  0.98  0.00
  C22                     1.00   0.00  0.00  0.00  0.87  0.13  0.00  0.00  1.00  0.00
  C12                     1.00   0.00  0.00  0.00  0.93  0.07  0.00  0.00  1.00  0.00
  C17                     1.00   0.00  0.00  0.00  0.60  0.40  0.00  0.00  0.97  0.00
  C10                     1.00   0.00  0.00  0.00  0.94  0.06  0.00  0.00  0.97  0.00
  C13                     1.00   0.00  0.00  0.00  0.84  0.16  0.00  0.00  0.30  0.00
  C18                     1.00   0.00  0.00  0.00  0.82  0.18  0.00  0.00  0.97  0.00
  C23                     1.00   0.00  0.00  0.00  0.90  0.10  0.00  0.00  0.94  0.00
  C4                      1.00   0.00  0.00  0.00  0.96  0.04  0.00  0.00  0.98  0.00
  C7                      1.00   0.00  0.00  0.00  0.91  0.09  0.00  0.00  0.96  0.00
  C14                     1.00   0.00  0.00  0.00  0.00  0.99  0.00  0.00  0.00  0.00
  C5                      1.00   0.00  0.00  0.00  0.89  0.11  0.00  0.00  0.86  0.00
  C8                      1.00   0.00  0.00  0.00  0.16  0.84  0.00  0.00  0.00  0.00
  C15                     1.00   0.00  0.00  0.00  0.00  1.00  0.00  0.00  0.00  0.00
  C21                     1.00   0.00  0.00  0.00  0.00  1.00  0.00  0.00  0.00  0.00
  
  
  *************************
  Conduit Surcharge Summary
  *************************
  
  ----------------------------------------------------------------------------
                                                           Hours        Hours 
                         --------- Hours Full --------   Above Full   Capacity
  Conduit                Both Ends  Upstream  Dnstream   Normal Flow   Limited
  ----------------------------------------------------------------------------
  C6                          0.01      0.88      0.01      0.78         0.01
  C10                         0.01      0.01      5.66      0.01         0.01
  C13                         0.01      0.01      5.32      0.01         0.01
  C18                         0.01      0.01      3.90      0.01         0.01
  C23                         0.01      0.01      5.99      0.01         0.01
  C4                          0.01      0.01      6.02      0.01         0.01
  C7                          0.01      0.01      5.56      0.01         0.01
  C5                          0.91      0.91      1.02      0.98         0.88
  C8                          0.01      0.93      0.01      0.95         0.01
  C15                         0.01      0.87      0.01      0.95         0.01
  C21                         0.01      0.62      0.01      0.63         0.01
  

  Analysis begun on:  Fri Sep  3 19:09:52 2021
  Analysis ended on:  Fri Sep  3 19:09:52 2021
  Total elapsed time: < 1 sec