
  EPA STORM WATER MANAGEMENT MODEL - VERSION 5.1 (Build 5.3.0.dev0)
  --------------------------------------------------------------

  
  *********************************************************
  NOTE: The summary statistics displayed in this report are
  based on results found at every computational time step,  
  not just on results from each reporting time step.
  *********************************************************
  
  ****************
  Analysis Options
  ****************
  Flow Units ............... CMS
  Process Models:
    Rainfall/Runoff ........ YES
    RDII ................... NO
    Snowmelt ............... NO
    Groundwater ............ NO
    Flow Routing ........... YES
    Ponding Allowed ........ YES
    Water Quality .......... NO
  Infiltration Method ...... HORTON
  Flow Routing Method ...... DYNWAVE
  Surcharge Method ......... EXTRAN
  Starting Date ............ 08/28/2015 08:00:00
  Ending Date .............. 08/28/2015 15:50:00
  Antecedent Dry Days ...... 0.0
  Report Time Step ......... 00:01:00
  Wet Time Step ............ 00:01:00
  Dry Time Step ............ 00:01:00
  Routing Time Step ........ 5.00 sec
  Variable Time Step ....... YES
  Maximum Trials ........... 8
  Number of Threads ........ 1
  Head Tolerance ........... 0.001500 m
  
  
  **************************        Volume         Depth
  Runoff Quantity Continuity     hectare-m            mm
  **************************     ---------       -------
  Total Precipitation ......         1.146         6.361
  Evaporation Loss .........         0.000         0.000
  Infiltration Loss ........         0.000         0.000
  Surface Runoff ...........         1.123         6.232
  Final Storage ............         0.023         0.130
  Continuity Error (%) .....        -0.007
  
  
  **************************        Volume        Volume
  Flow Routing Continuity        hectare-m      10^6 ltr
  **************************     ---------     ---------
  Dry Weather Inflow .......         0.396         3.955
  Wet Weather Inflow .......         1.123        11.230
  Groundwater Inflow .......         0.000         0.000
  RDII Inflow ..............         0.000         0.000
  External Inflow ..........         0.000         0.000
  External Outflow .........         0.592         5.924
  Flooding Loss ............         0.283         2.833
  Evaporation Loss .........         0.000         0.000
  Exfiltration Loss ........         0.000         0.000
  Initial Stored Volume ....         0.000         0.000
  Final Stored Volume ......         0.514         5.143
  Continuity Error (%) .....         8.468
  
  
  *************************
  Highest Continuity Errors
  *************************
  Node T5 (24.32%)
  Node T3 (16.71%)
  Node T1 (8.06%)
  Node T6 (7.33%)
  Node T4 (4.92%)
  
  
  ***************************
  Time-Step Critical Elements
  ***************************
  None
  
  
  ********************************
  Highest Flow Instability Indexes
  ********************************
  All links are stable.
  
  
  *************************
  Routing Time Step Summary
  *************************
  Minimum Time Step           :     4.50 sec
  Average Time Step           :     5.00 sec
  Maximum Time Step           :     5.00 sec
  Percent in Steady State     :     0.00
  Average Iterations per Step :     2.08
  Percent Not Converging      :     0.53
  
  
  ***************************
  Subcatchment Runoff Summary
  ***************************
  
  ------------------------------------------------------------------------------------------------------------------------------
                            Total      Total      Total      Total     Imperv       Perv      Total       Total     Peak  Runoff
                           Precip      Runon       Evap      Infil     Runoff     Runoff     Runoff      Runoff   Runoff   Coeff
  Subcatchment                 mm         mm         mm         mm         mm         mm         mm    10^6 ltr      CMS
  ------------------------------------------------------------------------------------------------------------------------------
  SC01                       6.36       0.00       0.00       0.00       6.28       0.00       6.28        2.07     0.46   0.987
  SC02                       6.36       0.00       0.00       0.00       6.27       0.00       6.27        1.43     0.32   0.986
  SC03                       6.36       0.00       0.00       0.00       6.29       0.00       6.29        1.13     0.26   0.989
  SC04                       6.36       0.00       0.00       0.00       6.17       0.00       6.17        0.43     0.09   0.970
  SC05                       6.36       0.00       0.00       0.00       6.27       0.00       6.27        0.98     0.22   0.986
  SC06                       6.36       0.00       0.00       0.00       6.12       0.00       6.12        1.99     0.39   0.962
  SC07                       6.36       0.00       0.00       0.00       6.17       0.00       6.17        0.29     0.06   0.970
  SC08                       6.36       0.00       0.00       0.00       6.24       0.00       6.24        1.75     0.38   0.982
  SC09                       6.36       0.00       0.00       0.00       6.22       0.00       6.22        0.43     0.09   0.978
  SC010                      6.36       0.00       0.00       0.00       6.25       0.00       6.25        0.73     0.16   0.982
  
  
  ******************
  Node Depth Summary
  ******************
  
  ---------------------------------------------------------------------------------
                                 Average  Maximum  Maximum  Time of Max    Reported
                                   Depth    Depth      HGL   Occurrence   Max Depth
  Node                 Type       Meters   Meters   Meters  days hr:min      Meters
  ---------------------------------------------------------------------------------
  J1                   JUNCTION     0.07     0.16    34.16     0  03:01        0.16
  J3                   JUNCTION     0.13     0.16    18.16     0  04:27        0.16
  CSO7                 JUNCTION     0.11     1.20    35.20     0  03:00        1.20
  J5                   JUNCTION     0.06     0.13    32.13     0  03:01        0.13
  CSO9                 JUNCTION     0.12     0.93    40.93     0  03:01        0.93
  J8                   JUNCTION     0.11     0.23    36.23     0  03:01        0.23
  CSO8                 JUNCTION     0.14     1.07    33.07     0  03:01        1.07
  J10                  JUNCTION     0.09     0.24    29.24     0  03:01        0.24
  J13                  JUNCTION     0.06     0.16    29.16     0  03:01        0.16
  J15                  JUNCTION     0.19     0.32    15.32     0  03:02        0.32
  J16                  JUNCTION     0.07     0.17    30.17     0  03:01        0.17
  CSO10                JUNCTION     0.12     0.37    30.37     0  03:01        0.37
  J12                  JUNCTION     0.15     0.29    26.29     0  03:03        0.29
  J4                   JUNCTION     0.13     1.03    34.03     0  03:00        0.76
  J6                   JUNCTION     0.08     0.10    25.10     0  03:40        0.10
  J2                   JUNCTION     0.06     0.08    25.08     0  03:59        0.08
  J19                  JUNCTION     0.14     0.17     8.17     0  02:45        0.17
  J9                   JUNCTION     0.13     0.16    29.16     0  03:42        0.16
  J14                  JUNCTION     0.14     0.18    20.18     0  06:15        0.18
  J17                  JUNCTION     0.09     0.12    20.12     0  03:25        0.12
  J7                   JUNCTION     0.08     0.20    39.20     0  03:01        0.20
  J11                  JUNCTION     0.10     0.26    31.26     0  03:01        0.26
  J18                  JUNCTION     0.05     0.15    29.15     0  03:02        0.15
  Out_to_WWTP          OUTFALL      0.14     0.17     6.17     0  02:43        0.17
  T5                   STORAGE      3.04     4.62    31.62     0  03:57        4.62
  T4                   STORAGE      1.23     2.52    29.52     0  03:38        2.52
  T6                   STORAGE      2.47     5.00    36.00     0  03:34        5.00
  T3                   STORAGE      2.67     4.14    26.14     0  05:46        4.14
  T2                   STORAGE      1.13     2.38    23.38     0  03:23        2.38
  T1                   STORAGE      3.66     5.00    15.00     0  02:43        5.00
  
  
  *******************
  Node Inflow Summary
  *******************
  
  -------------------------------------------------------------------------------------------------
                                  Maximum  Maximum                  Lateral       Total        Flow
                                  Lateral    Total  Time of Max      Inflow      Inflow     Balance
                                   Inflow   Inflow   Occurrence      Volume      Volume       Error
  Node                 Type           CMS      CMS  days hr:min    10^6 ltr    10^6 ltr     Percent
  -------------------------------------------------------------------------------------------------
  J1                   JUNCTION     0.240    0.240     0  03:01        1.54        1.54       0.031
  J3                   JUNCTION     0.000    0.260     0  04:24           0        5.26       0.842
  CSO7                 JUNCTION     0.071    0.071     0  03:01       0.584       0.584       0.079
  J5                   JUNCTION     0.091    0.161     0  03:01       0.553        1.13       0.110
  CSO9                 JUNCTION     0.098    0.098     0  03:01       0.625       0.625       0.075
  J8                   JUNCTION     0.425    0.519     0  03:01        2.93        3.55       0.116
  CSO8                 JUNCTION     0.387    0.387     0  03:01        2.04        2.04       0.027
  J10                  JUNCTION     0.279    0.653     0  03:01        1.52        3.55       0.138
  J13                  JUNCTION     0.336    0.336     0  03:01        1.89        1.89      -0.236
  J15                  JUNCTION     0.000    0.945     0  03:01           0        10.4       0.997
  J16                  JUNCTION     0.487    0.487     0  03:01        2.62        2.62      -0.013
  CSO10                JUNCTION     0.165    0.165     0  03:01       0.873       0.873       0.047
  J12                  JUNCTION     0.000    0.791     0  03:01           0        6.65       0.470
  J4                   JUNCTION     0.000    0.070     0  03:01           0       0.583       0.582
  J6                   JUNCTION     0.000    0.056     0  03:38           0        1.01       0.403
  J2                   JUNCTION     0.000    0.038     0  03:57           0       0.792       0.651
  J19                  JUNCTION     0.000    0.271     0  02:43           0        5.94       0.214
  J9                   JUNCTION     0.000    0.175     0  03:34           0        3.12       0.681
  J14                  JUNCTION     0.000    0.173     0  05:47           0        3.48       0.268
  J17                  JUNCTION     0.000    0.096     0  03:23           0        1.69       0.466
  J7                   JUNCTION     0.000    0.098     0  03:01           0       0.625       0.508
  J11                  JUNCTION     0.000    0.387     0  03:01           0        2.04       0.298
  J18                  JUNCTION     0.000    0.163     0  03:01           0       0.873       0.081
  Out_to_WWTP          OUTFALL      0.000    0.271     0  02:45           0        5.92       0.000
  T5                   STORAGE      0.000    0.238     0  03:01           0        1.54      32.135
  T4                   STORAGE      0.000    0.157     0  03:01           0        1.13       5.180
  T6                   STORAGE      0.000    0.510     0  03:01           0        3.55       7.905
  T3                   STORAGE      0.000    0.774     0  03:03           0        6.61      20.056
  T2                   STORAGE      0.000    0.332     0  03:01           0         1.9       5.171
  T1                   STORAGE      0.000    0.917     0  03:02           0        10.3       8.763
  
  
  **********************
  Node Surcharge Summary
  **********************
  
  Surcharging occurs when water rises above the top of the highest conduit.
  ---------------------------------------------------------------------
                                               Max. Height   Min. Depth
                                   Hours       Above Crown    Below Rim
  Node                 Type      Surcharged         Meters       Meters
  ---------------------------------------------------------------------
  CSO7                 JUNCTION        0.21          0.945        0.000
  CSO9                 JUNCTION        0.27          0.612        1.070
  CSO8                 JUNCTION        0.19          0.615        0.932
  J4                   JUNCTION        0.17          0.725        0.975
  
  
  *********************
  Node Flooding Summary
  *********************
  
  Flooding refers to all water that overflows a node, whether it ponds or not.
  --------------------------------------------------------------------------
                                                             Total   Maximum
                                 Maximum   Time of Max       Flood    Ponded
                        Hours       Rate    Occurrence      Volume     Depth
  Node                 Flooded       CMS   days hr:min    10^6 ltr    Meters
  --------------------------------------------------------------------------
  CSO7                    0.02     0.005      0  03:00       0.000     0.000
  T6                      0.12     0.028      0  03:34       0.006     0.000
  T1                      5.11     0.647      0  03:02       2.827     0.000
  
  
  **********************
  Storage Volume Summary
  **********************
  
  --------------------------------------------------------------------------------------------------
                         Average     Avg  Evap Exfil       Maximum     Max    Time of Max    Maximum
                          Volume    Pcnt  Pcnt  Pcnt        Volume    Pcnt     Occurrence    Outflow
  Storage Unit           1000 m3    Full  Loss  Loss       1000 m3    Full    days hr:min        CMS
  --------------------------------------------------------------------------------------------------
  T5                       0.304      61     0     0         0.462      92       0  03:57      0.038
  T4                       0.123      25     0     0         0.252      50       0  03:38      0.056
  T6                       0.296      49     0     0         0.600     100       0  03:34      0.175
  T3                       1.387      53     0     0         2.155      83       0  05:46      0.173
  T2                       0.226      23     0     0         0.476      48       0  03:23      0.096
  T1                       0.512      73     0     0         0.700     100       0  02:43      0.271
  
  
  ***********************
  Outfall Loading Summary
  ***********************
  
  -----------------------------------------------------------
                         Flow       Avg       Max       Total
                         Freq      Flow      Flow      Volume
  Outfall Node           Pcnt       CMS       CMS    10^6 ltr
  -----------------------------------------------------------
  Out_to_WWTP           99.01     0.212     0.271       5.924
  -----------------------------------------------------------
  System                99.01     0.212     0.271       5.924
  
  
  ********************
  Link Flow Summary
  ********************
  
  -----------------------------------------------------------------------------
                                 Maximum  Time of Max   Maximum    Max/    Max/
                                  |Flow|   Occurrence   |Veloc|    Full    Full
  Link                 Type          CMS  days hr:min     m/sec    Flow   Depth
  -----------------------------------------------------------------------------
  C1                   CONDUIT     0.038     0  03:59      0.91    0.01    0.12
  C6                   CONDUIT     0.070     0  03:01      1.29    1.12    0.72
  C2                   CONDUIT     0.056     0  03:40      1.25    0.06    0.22
  C9                   CONDUIT     0.094     0  03:01      1.17    0.32    0.43
  C16                  CONDUIT     0.377     0  03:01      1.63    0.04    0.13
  C3                   CONDUIT     0.173     0  05:47      2.00    0.07    0.17
  C19                  CONDUIT     0.096     0  03:25      1.03    0.03    0.22
  C11                  CONDUIT     0.260     0  04:27      1.81    0.01    0.12
  C20                  CONDUIT     0.482     0  03:01      2.18    0.02    0.12
  C22                  CONDUIT     0.160     0  03:02      1.31    0.07    0.29
  C12                  CONDUIT     0.175     0  03:42      1.42    0.01    0.11
  C17                  CONDUIT     0.641     0  03:01      2.57    0.03    0.13
  C10                  CONDUIT     0.510     0  03:01      1.66    0.05    0.58
  C13                  CONDUIT     0.774     0  03:03      1.53    0.05    0.57
  C18                  CONDUIT     0.332     0  03:01      1.72    0.01    0.54
  C23                  CONDUIT     0.917     0  03:02      1.26    0.10    0.61
  C4                   CONDUIT     0.238     0  03:01      1.98    0.06    0.58
  C7                   CONDUIT     0.157     0  03:01      1.43    0.04    0.57
  C14                  CONDUIT     0.271     0  02:45      2.08    0.02    0.09
  C5                   CONDUIT     0.070     0  03:01      1.37    1.20    1.00
  C8                   CONDUIT     0.098     0  03:01      1.43    1.24    0.81
  C15                  CONDUIT     0.387     0  03:01      2.84    1.23    0.79
  C21                  CONDUIT     0.163     0  03:01      1.76    0.93    0.59
  V4                   ORIFICE     0.056     0  03:38                      1.00
  V5                   ORIFICE     0.038     0  03:57                      1.00
  V1                   ORIFICE     0.271     0  02:43                      1.00
  V6                   ORIFICE     0.175     0  03:34                      1.00
  V3                   ORIFICE     0.173     0  05:47                      1.00
  V2                   ORIFICE     0.096     0  03:23                      1.00
  
  
  ***************************
  Flow Classification Summary
  ***************************
  
  -------------------------------------------------------------------------------------
                      Adjusted    ---------- Fraction of Time in Flow Class ---------- 
                       /Actual         Up    Down  Sub   Sup   Up    Down  Norm  Inlet 
  Conduit               Length    Dry  Dry   Dry   Crit  Crit  Crit  Crit  Ltd   Ctrl  
  -------------------------------------------------------------------------------------
  C1                      1.00   0.00  0.00  0.00  0.92  0.08  0.00  0.00  0.95  0.00
  C6                      1.00   0.00  0.00  0.00  0.05  0.95  0.00  0.00  0.00  0.00
  C2                      1.00   0.00  0.00  0.00  0.10  0.89  0.00  0.00  0.94  0.00
  C9                      1.00   0.00  0.00  0.00  1.00  0.00  0.00  0.00  1.00  0.00
  C16                     1.00   0.00  0.00  0.00  0.57  0.43  0.00  0.00  0.45  0.00
  C3                      1.00   0.00  0.00  0.00  0.05  0.94  0.00  0.00  0.07  0.00
  C19                     1.00   0.00  0.00  0.00  1.00  0.00  0.00  0.00  1.00  0.00
  C11                     1.00   0.00  0.00  0.00  0.30  0.70  0.00  0.00  1.00  0.00
  C20                     1.00   0.00  0.00  0.00  0.63  0.37  0.00  0.00  0.98  0.00
  C22                     1.00   0.00  0.00  0.00  0.95  0.05  0.00  0.00  1.00  0.00
  C12                     1.00   0.00  0.00  0.00  0.36  0.64  0.00  0.00  0.57  0.00
  C17                     1.00   0.00  0.00  0.00  0.51  0.49  0.00  0.00  0.97  0.00
  C10                     1.00   0.00  0.00  0.00  0.94  0.06  0.00  0.00  0.97  0.00
  C13                     1.00   0.00  0.00  0.00  0.86  0.14  0.00  0.00  0.85  0.00
  C18                     1.00   0.00  0.00  0.00  0.82  0.18  0.00  0.00  0.97  0.00
  C23                     1.00   0.00  0.00  0.00  0.90  0.10  0.00  0.00  0.94  0.00
  C4                      1.00   0.00  0.00  0.00  0.96  0.04  0.00  0.00  0.98  0.00
  C7                      1.00   0.00  0.00  0.00  0.91  0.09  0.00  0.00  0.96  0.00
  C14                     1.00   0.00  0.00  0.00  0.00  0.99  0.00  0.00  0.00  0.00
  C5                      1.00   0.00  0.00  0.00  0.89  0.11  0.00  0.00  0.95  0.00
  C8                      1.00   0.00  0.00  0.00  0.09  0.91  0.00  0.00  0.00  0.00
  C15                     1.00   0.00  0.00  0.00  0.00  1.00  0.00  0.00  0.00  0.00
  C21                     1.00   0.00  0.00  0.00  0.00  1.00  0.00  0.00  0.00  0.00
  
  
  *************************
  Conduit Surcharge Summary
  *************************
  
  ----------------------------------------------------------------------------
                                                           Hours        Hours 
                         --------- Hours Full --------   Above Full   Capacity
  Conduit                Both Ends  Upstream  Dnstream   Normal Flow   Limited
  ----------------------------------------------------------------------------
  C6                          0.01      0.17      0.01      0.06         0.01
  C10                         0.01      0.01      5.33      0.01         0.01
  C13                         0.01      0.01      5.07      0.01         0.01
  C18                         0.01      0.01      1.35      0.01         0.01
  C23                         0.01      0.01      5.90      0.01         0.01
  C4                          0.01      0.01      5.92      0.01         0.01
  C7                          0.01      0.01      4.52      0.01         0.01
  C5                          0.21      0.21      0.34      0.31         0.18
  C8                          0.01      0.27      0.01      0.29         0.01
  C15                         0.01      0.19      0.01      0.30         0.01
  

  Analysis begun on:  Fri Sep  3 18:51:09 2021
  Analysis ended on:  Fri Sep  3 18:51:09 2021
  Total elapsed time: < 1 sec