
  EPA STORM WATER MANAGEMENT MODEL - VERSION 5.1 (Build 5.3.0.dev0)
  --------------------------------------------------------------

  
  *********************************************************
  NOTE: The summary statistics displayed in this report are
  based on results found at every computational time step,  
  not just on results from each reporting time step.
  *********************************************************
  
  ****************
  Analysis Options
  ****************
  Flow Units ............... CMS
  Process Models:
    Rainfall/Runoff ........ YES
    RDII ................... NO
    Snowmelt ............... NO
    Groundwater ............ NO
    Flow Routing ........... YES
    Ponding Allowed ........ YES
    Water Quality .......... NO
  Infiltration Method ...... HORTON
  Flow Routing Method ...... DYNWAVE
  Surcharge Method ......... EXTRAN
  Starting Date ............ 08/28/2015 08:00:00
  Ending Date .............. 08/28/2015 15:50:00
  Antecedent Dry Days ...... 0.0
  Report Time Step ......... 00:01:00
  Wet Time Step ............ 00:01:00
  Dry Time Step ............ 00:01:00
  Routing Time Step ........ 5.00 sec
  Variable Time Step ....... YES
  Maximum Trials ........... 8
  Number of Threads ........ 1
  Head Tolerance ........... 0.001500 m
  
  
  **************************        Volume         Depth
  Runoff Quantity Continuity     hectare-m            mm
  **************************     ---------       -------
  Total Precipitation ......         2.557        14.188
  Evaporation Loss .........         0.000         0.000
  Infiltration Loss ........         0.000         0.000
  Surface Runoff ...........         2.533        14.057
  Final Storage ............         0.024         0.132
  Continuity Error (%) .....        -0.006
  
  
  **************************        Volume        Volume
  Flow Routing Continuity        hectare-m      10^6 ltr
  **************************     ---------     ---------
  Dry Weather Inflow .......         0.396         3.956
  Wet Weather Inflow .......         2.533        25.331
  Groundwater Inflow .......         0.000         0.000
  RDII Inflow ..............         0.000         0.000
  External Inflow ..........         0.000         0.000
  External Outflow .........         0.619         6.188
  Flooding Loss ............         1.472        14.718
  Evaporation Loss .........         0.000         0.000
  Exfiltration Loss ........         0.000         0.000
  Initial Stored Volume ....         0.000         0.000
  Final Stored Volume ......         0.683         6.828
  Continuity Error (%) .....         5.303
  
  
  *************************
  Highest Continuity Errors
  *************************
  Node T3 (14.66%)
  Node T5 (14.43%)
  Node T2 (8.52%)
  Node J12 (6.53%)
  Node T4 (6.43%)
  
  
  ***************************
  Time-Step Critical Elements
  ***************************
  None
  
  
  ********************************
  Highest Flow Instability Indexes
  ********************************
  All links are stable.
  
  
  *************************
  Routing Time Step Summary
  *************************
  Minimum Time Step           :     2.11 sec
  Average Time Step           :     5.00 sec
  Maximum Time Step           :     5.00 sec
  Percent in Steady State     :     0.00
  Average Iterations per Step :     2.19
  Percent Not Converging      :     0.57
  
  
  ***************************
  Subcatchment Runoff Summary
  ***************************
  
  ------------------------------------------------------------------------------------------------------------------------------
                            Total      Total      Total      Total     Imperv       Perv      Total       Total     Peak  Runoff
                           Precip      Runon       Evap      Infil     Runoff     Runoff     Runoff      Runoff   Runoff   Coeff
  Subcatchment                 mm         mm         mm         mm         mm         mm         mm    10^6 ltr      CMS
  ------------------------------------------------------------------------------------------------------------------------------
  SC01                      14.19       0.00       0.00       0.00      14.10       0.00      14.10        4.65     1.17   0.994
  SC02                      14.19       0.00       0.00       0.00      14.10       0.00      14.10        3.21     0.80   0.994
  SC03                      14.19       0.00       0.00       0.00      14.12       0.00      14.12        2.54     0.67   0.995
  SC04                      14.19       0.00       0.00       0.00      13.99       0.00      13.99        0.97     0.21   0.986
  SC05                      14.19       0.00       0.00       0.00      14.10       0.00      14.10        2.20     0.55   0.994
  SC06                      14.19       0.00       0.00       0.00      13.94       0.00      13.94        4.54     0.94   0.982
  SC07                      14.19       0.00       0.00       0.00      13.99       0.00      13.99        0.66     0.14   0.986
  SC08                      14.19       0.00       0.00       0.00      14.07       0.00      14.07        3.94     0.94   0.992
  SC09                      14.19       0.00       0.00       0.00      14.05       0.00      14.05        0.97     0.22   0.990
  SC010                     14.19       0.00       0.00       0.00      14.07       0.00      14.07        1.65     0.40   0.992
  
  
  ******************
  Node Depth Summary
  ******************
  
  ---------------------------------------------------------------------------------
                                 Average  Maximum  Maximum  Time of Max    Reported
                                   Depth    Depth      HGL   Occurrence   Max Depth
  Node                 Type       Meters   Meters   Meters  days hr:min      Meters
  ---------------------------------------------------------------------------------
  J1                   JUNCTION     0.09     0.25    34.25     0  02:18        0.25
  J3                   JUNCTION     0.14     0.17    18.17     0  03:21        0.17
  CSO7                 JUNCTION     0.28     1.20    35.20     0  01:53        1.20
  J5                   JUNCTION     0.08     0.18    32.18     0  02:22        0.18
  CSO9                 JUNCTION     0.39     2.00    42.00     0  01:59        2.00
  J8                   JUNCTION     0.13     0.34    36.34     0  02:23        0.34
  CSO8                 JUNCTION     0.41     2.00    34.00     0  01:56        2.00
  J10                  JUNCTION     0.12     0.33    29.33     0  02:18        0.33
  J13                  JUNCTION     0.08     0.24    29.24     0  02:18        0.24
  J15                  JUNCTION     0.23     0.44    15.44     0  02:22        0.44
  J16                  JUNCTION     0.08     0.26    30.26     0  02:18        0.26
  CSO10                JUNCTION     0.24     1.00    31.00     0  01:55        1.00
  J12                  JUNCTION     0.70     1.09    27.09     0  03:00        1.09
  J4                   JUNCTION     0.21     1.22    34.22     0  01:53        0.76
  J6                   JUNCTION     0.09     0.12    25.12     0  03:30        0.12
  J2                   JUNCTION     0.07     0.08    25.08     0  03:10        0.08
  J19                  JUNCTION     0.15     0.17     8.17     0  02:05        0.17
  J9                   JUNCTION     0.13     0.16    29.16     0  03:34        0.16
  J14                  JUNCTION     0.15     0.19    20.19     0  06:14        0.19
  J17                  JUNCTION     0.11     0.15    20.15     0  03:14        0.15
  J7                   JUNCTION     0.10     0.23    39.23     0  02:58        0.23
  J11                  JUNCTION     0.12     0.30    31.30     0  02:58        0.30
  J18                  JUNCTION     0.07     0.16    29.16     0  02:32        0.16
  Out_to_WWTP          OUTFALL      0.15     0.17     6.17     0  02:04        0.17
  T5                   STORAGE      3.62     5.00    32.00     0  02:18        5.00
  T4                   STORAGE      2.63     5.00    32.00     0  02:59        5.00
  T6                   STORAGE      2.92     5.00    36.00     0  02:18        5.00
  T3                   STORAGE      3.61     5.00    27.00     0  02:54        5.00
  T2                   STORAGE      2.62     5.00    26.00     0  02:39        5.00
  T1                   STORAGE      3.90     5.00    15.00     0  02:04        5.00
  
  
  *******************
  Node Inflow Summary
  *******************
  
  -------------------------------------------------------------------------------------------------
                                  Maximum  Maximum                  Lateral       Total        Flow
                                  Lateral    Total  Time of Max      Inflow      Inflow     Balance
                                   Inflow   Inflow   Occurrence      Volume      Volume       Error
  Node                 Type           CMS      CMS  days hr:min    10^6 ltr    10^6 ltr     Percent
  -------------------------------------------------------------------------------------------------
  J1                   JUNCTION     0.567    0.567     0  02:18        2.76        2.76       0.006
  J3                   JUNCTION     0.000    0.309     0  03:29           0        6.42       0.769
  CSO7                 JUNCTION     0.155    0.155     0  02:21       0.955       0.955       0.050
  J5                   JUNCTION     0.214    0.287     0  02:21        1.09        1.84       0.053
  CSO9                 JUNCTION     0.230    0.230     0  02:20        1.17        1.17       0.039
  J8                   JUNCTION     0.974    1.101     0  02:23        5.48        6.46       0.051
  CSO8                 JUNCTION     0.949    0.949     0  02:19        4.23        4.23       0.012
  J10                  JUNCTION     0.684    1.169     0  02:17        2.93        6.34      -0.047
  J13                  JUNCTION     0.815    0.815     0  02:18        3.67        3.67      -0.175
  J15                  JUNCTION     0.000    1.729     0  02:19           0        15.6       0.762
  J16                  JUNCTION     1.191    1.191     0  02:18        5.21        5.21      -0.033
  CSO10                JUNCTION     0.401    0.401     0  02:19        1.79        1.79       0.018
  J12                  JUNCTION     0.000    1.332     0  02:18           0        9.76       6.992
  J4                   JUNCTION     0.000    0.073     0  01:53           0       0.754       0.444
  J6                   JUNCTION     0.000    0.080     0  02:59           0        1.47       0.375
  J2                   JUNCTION     0.000    0.039     0  02:18           0       0.873       0.605
  J19                  JUNCTION     0.000    0.271     0  02:04           0         6.2       0.204
  J9                   JUNCTION     0.000    0.175     0  02:18           0        3.43       0.541
  J14                  JUNCTION     0.000    0.190     0  02:54           0        4.11       0.244
  J17                  JUNCTION     0.000    0.140     0  02:39           0        2.57       0.446
  J7                   JUNCTION     0.000    0.127     0  02:58           0       0.983       0.316
  J11                  JUNCTION     0.000    0.487     0  02:58           0        3.42       0.189
  J18                  JUNCTION     0.000    0.202     0  02:32           0        1.44       0.022
  Out_to_WWTP          OUTFALL      0.000    0.271     0  02:05           0        6.19       0.000
  T5                   STORAGE      0.000    0.566     0  02:18           0        2.76      16.864
  T4                   STORAGE      0.000    0.287     0  02:22           0        1.84       6.868
  T6                   STORAGE      0.000    1.100     0  02:23           0        6.45       4.352
  T3                   STORAGE      0.000    1.550     0  03:03           0        9.12      17.178
  T2                   STORAGE      0.000    0.814     0  02:18           0        3.68       9.308
  T1                   STORAGE      0.000    1.709     0  02:22           0        15.5       5.659
  
  
  **********************
  Node Surcharge Summary
  **********************
  
  Surcharging occurs when water rises above the top of the highest conduit.
  ---------------------------------------------------------------------
                                               Max. Height   Min. Depth
                                   Hours       Above Crown    Below Rim
  Node                 Type      Surcharged         Meters       Meters
  ---------------------------------------------------------------------
  CSO7                 JUNCTION        1.41          0.945        0.000
  CSO9                 JUNCTION        1.44          1.682        0.000
  CSO8                 JUNCTION        1.42          1.547        0.000
  CSO10                JUNCTION        1.20          0.560        0.000
  J4                   JUNCTION        1.38          0.925        0.775
  
  
  *********************
  Node Flooding Summary
  *********************
  
  Flooding refers to all water that overflows a node, whether it ponds or not.
  --------------------------------------------------------------------------
                                                             Total   Maximum
                                 Maximum   Time of Max       Flood    Ponded
                        Hours       Rate    Occurrence      Volume     Depth
  Node                 Flooded       CMS   days hr:min    10^6 ltr    Meters
  --------------------------------------------------------------------------
  CSO7                    1.24     0.083      0  02:21       0.201     0.000
  CSO9                    0.99     0.103      0  02:20       0.182     0.000
  CSO8                    1.04     0.463      0  02:19       0.813     0.000
  CSO10                   1.05     0.199      0  02:19       0.352     0.000
  T5                      1.61     0.527      0  02:18       1.088     0.000
  T4                      0.53     0.121      0  02:59       0.105     0.000
  T6                      1.53     0.925      0  02:23       2.576     0.000
  T3                      1.69     1.360      0  03:03       1.172     0.000
  T2                      0.62     0.410      0  02:39       0.494     0.000
  T1                      5.76     1.439      0  02:22       7.736     0.000
  
  
  **********************
  Storage Volume Summary
  **********************
  
  --------------------------------------------------------------------------------------------------
                         Average     Avg  Evap Exfil       Maximum     Max    Time of Max    Maximum
                          Volume    Pcnt  Pcnt  Pcnt        Volume    Pcnt     Occurrence    Outflow
  Storage Unit           1000 m3    Full  Loss  Loss       1000 m3    Full    days hr:min        CMS
  --------------------------------------------------------------------------------------------------
  T5                       0.362      72     0     0         0.500     100       0  02:18      0.039
  T4                       0.263      53     0     0         0.500     100       0  02:59      0.080
  T6                       0.350      58     0     0         0.600     100       0  02:18      0.175
  T3                       1.879      72     0     0         2.600     100       0  02:54      0.190
  T2                       0.523      52     0     0         1.000     100       0  02:39      0.140
  T1                       0.547      78     0     0         0.700     100       0  02:04      0.271
  
  
  ***********************
  Outfall Loading Summary
  ***********************
  
  -----------------------------------------------------------
                         Flow       Avg       Max       Total
                         Freq      Flow      Flow      Volume
  Outfall Node           Pcnt       CMS       CMS    10^6 ltr
  -----------------------------------------------------------
  Out_to_WWTP           99.01     0.222     0.271       6.188
  -----------------------------------------------------------
  System                99.01     0.222     0.271       6.188
  
  
  ********************
  Link Flow Summary
  ********************
  
  -----------------------------------------------------------------------------
                                 Maximum  Time of Max   Maximum    Max/    Max/
                                  |Flow|   Occurrence   |Veloc|    Full    Full
  Link                 Type          CMS  days hr:min     m/sec    Flow   Depth
  -----------------------------------------------------------------------------
  C1                   CONDUIT     0.039     0  03:10      0.91    0.01    0.13
  C6                   CONDUIT     0.072     0  02:22      1.29    1.15    0.80
  C2                   CONDUIT     0.080     0  03:30      1.48    0.09    0.25
  C9                   CONDUIT     0.127     0  02:58      1.30    0.43    0.57
  C16                  CONDUIT     0.488     0  02:06      1.79    0.05    0.15
  C3                   CONDUIT     0.190     0  02:56      2.05    0.07    0.18
  C19                  CONDUIT     0.140     0  03:14      1.24    0.05    0.29
  C11                  CONDUIT     0.309     0  03:22      1.85    0.02    0.15
  C20                  CONDUIT     1.190     0  02:18      3.25    0.04    0.18
  C22                  CONDUIT     0.202     0  02:32      1.50    0.09    0.38
  C12                  CONDUIT     0.175     0  03:34      0.76    0.01    0.31
  C17                  CONDUIT     1.165     0  02:18      3.17    0.06    0.34
  C10                  CONDUIT     1.100     0  02:23      1.66    0.11    0.61
  C13                  CONDUIT     1.550     0  03:03      1.53    0.09    0.77
  C18                  CONDUIT     0.814     0  02:18      1.72    0.03    0.56
  C23                  CONDUIT     1.709     0  02:22      1.41    0.19    0.65
  C4                   CONDUIT     0.566     0  02:18      1.98    0.14    0.63
  C7                   CONDUIT     0.287     0  02:22      1.43    0.07    0.59
  C14                  CONDUIT     0.271     0  02:05      2.08    0.02    0.09
  C5                   CONDUIT     0.073     0  01:53      1.42    1.24    1.00
  C8                   CONDUIT     0.127     0  02:58      1.75    1.60    0.86
  C15                  CONDUIT     0.487     0  02:58      3.42    1.55    0.83
  C21                  CONDUIT     0.202     0  02:32      1.82    1.16    0.69
  V4                   ORIFICE     0.080     0  02:59                      1.00
  V5                   ORIFICE     0.039     0  02:18                      1.00
  V1                   ORIFICE     0.271     0  02:04                      1.00
  V6                   ORIFICE     0.175     0  02:18                      1.00
  V3                   ORIFICE     0.190     0  02:54                      1.00
  V2                   ORIFICE     0.140     0  02:39                      1.00
  
  
  ***************************
  Flow Classification Summary
  ***************************
  
  -------------------------------------------------------------------------------------
                      Adjusted    ---------- Fraction of Time in Flow Class ---------- 
                       /Actual         Up    Down  Sub   Sup   Up    Down  Norm  Inlet 
  Conduit               Length    Dry  Dry   Dry   Crit  Crit  Crit  Crit  Ltd   Ctrl  
  -------------------------------------------------------------------------------------
  C1                      1.00   0.00  0.00  0.00  0.92  0.08  0.00  0.00  0.95  0.00
  C6                      1.00   0.00  0.00  0.00  0.20  0.80  0.00  0.00  0.00  0.00
  C2                      1.00   0.00  0.00  0.00  0.01  0.99  0.00  0.00  0.94  0.00
  C9                      1.00   0.00  0.00  0.00  1.00  0.00  0.00  0.00  1.00  0.00
  C16                     1.00   0.00  0.00  0.00  0.55  0.45  0.00  0.00  0.49  0.00
  C3                      1.00   0.00  0.00  0.00  0.05  0.94  0.00  0.00  0.07  0.00
  C19                     1.00   0.00  0.00  0.00  0.61  0.39  0.00  0.00  1.00  0.00
  C11                     1.00   0.00  0.00  0.00  0.31  0.69  0.00  0.00  1.00  0.00
  C20                     1.00   0.00  0.00  0.00  0.63  0.37  0.00  0.00  0.98  0.00
  C22                     1.00   0.00  0.00  0.00  0.87  0.13  0.00  0.00  1.00  0.00
  C12                     1.00   0.00  0.00  0.00  0.94  0.06  0.00  0.00  1.00  0.00
  C17                     1.00   0.00  0.00  0.00  0.66  0.34  0.00  0.00  0.95  0.00
  C10                     1.00   0.00  0.00  0.00  0.94  0.06  0.00  0.00  0.97  0.00
  C13                     1.00   0.00  0.00  0.00  0.83  0.17  0.00  0.00  0.24  0.00
  C18                     1.00   0.00  0.00  0.00  0.83  0.17  0.00  0.00  0.97  0.00
  C23                     1.00   0.00  0.00  0.00  0.90  0.10  0.00  0.00  0.94  0.00
  C4                      1.00   0.00  0.00  0.00  0.96  0.04  0.00  0.00  0.98  0.00
  C7                      1.00   0.00  0.00  0.00  0.91  0.09  0.00  0.00  0.96  0.00
  C14                     1.00   0.00  0.00  0.00  0.00  0.99  0.00  0.00  0.00  0.00
  C5                      1.00   0.00  0.00  0.00  0.91  0.09  0.00  0.00  0.80  0.00
  C8                      1.00   0.00  0.00  0.00  0.21  0.79  0.00  0.00  0.00  0.00
  C15                     1.00   0.00  0.00  0.00  0.00  1.00  0.00  0.00  0.00  0.00
  C21                     1.00   0.00  0.00  0.00  0.00  1.00  0.00  0.00  0.00  0.00
  
  
  *************************
  Conduit Surcharge Summary
  *************************
  
  ----------------------------------------------------------------------------
                                                           Hours        Hours 
                         --------- Hours Full --------   Above Full   Capacity
  Conduit                Both Ends  Upstream  Dnstream   Normal Flow   Limited
  ----------------------------------------------------------------------------
  C6                          0.01      1.38      0.01      1.28         0.01
  C10                         0.01      0.01      5.93      0.01         0.01
  C13                         0.01      0.01      5.73      0.01         0.01
  C18                         0.01      0.01      4.93      0.01         0.01
  C23                         0.01      0.01      6.19      0.01         0.01
  C4                          0.01      0.01      6.23      0.01         0.01
  C7                          0.01      0.01      5.91      0.01         0.01
  C5                          1.40      1.41      1.50      1.46         1.38
  C8                          0.01      1.44      0.01      1.46         0.01
  C15                         0.01      1.42      0.01      1.48         0.01
  C21                         0.01      1.20      0.01      1.21         0.01
  

  Analysis begun on:  Fri Sep  3 18:53:13 2021
  Analysis ended on:  Fri Sep  3 18:53:13 2021
  Total elapsed time: < 1 sec