
  EPA STORM WATER MANAGEMENT MODEL - VERSION 5.1 (Build 5.3.0.dev0)
  --------------------------------------------------------------

  
  *********************************************************
  NOTE: The summary statistics displayed in this report are
  based on results found at every computational time step,  
  not just on results from each reporting time step.
  *********************************************************
  
  ****************
  Analysis Options
  ****************
  Flow Units ............... CMS
  Process Models:
    Rainfall/Runoff ........ YES
    RDII ................... NO
    Snowmelt ............... NO
    Groundwater ............ NO
    Flow Routing ........... YES
    Ponding Allowed ........ YES
    Water Quality .......... NO
  Infiltration Method ...... HORTON
  Flow Routing Method ...... DYNWAVE
  Surcharge Method ......... EXTRAN
  Starting Date ............ 08/28/2015 08:00:00
  Ending Date .............. 08/28/2015 15:50:00
  Antecedent Dry Days ...... 0.0
  Report Time Step ......... 00:01:00
  Wet Time Step ............ 00:01:00
  Dry Time Step ............ 00:01:00
  Routing Time Step ........ 5.00 sec
  Variable Time Step ....... YES
  Maximum Trials ........... 8
  Number of Threads ........ 1
  Head Tolerance ........... 0.001500 m
  
  
  **************************        Volume         Depth
  Runoff Quantity Continuity     hectare-m            mm
  **************************     ---------       -------
  Total Precipitation ......         2.335        12.959
  Evaporation Loss .........         0.000         0.000
  Infiltration Loss ........         0.000         0.000
  Surface Runoff ...........         2.311        12.827
  Final Storage ............         0.024         0.134
  Continuity Error (%) .....        -0.007
  
  
  **************************        Volume        Volume
  Flow Routing Continuity        hectare-m      10^6 ltr
  **************************     ---------     ---------
  Dry Weather Inflow .......         0.396         3.955
  Wet Weather Inflow .......         2.311        23.113
  Groundwater Inflow .......         0.000         0.000
  RDII Inflow ..............         0.000         0.000
  External Inflow ..........         0.000         0.000
  External Outflow .........         0.610         6.104
  Flooding Loss ............         1.251        12.510
  Evaporation Loss .........         0.000         0.000
  Exfiltration Loss ........         0.000         0.000
  Initial Stored Volume ....         0.000         0.000
  Final Stored Volume ......         0.688         6.879
  Continuity Error (%) .....         5.821
  
  
  *************************
  Highest Continuity Errors
  *************************
  Node T5 (15.59%)
  Node T3 (15.55%)
  Node T2 (9.43%)
  Node T4 (7.08%)
  Node J12 (7.02%)
  
  
  ***************************
  Time-Step Critical Elements
  ***************************
  None
  
  
  ********************************
  Highest Flow Instability Indexes
  ********************************
  All links are stable.
  
  
  *************************
  Routing Time Step Summary
  *************************
  Minimum Time Step           :     4.50 sec
  Average Time Step           :     5.00 sec
  Maximum Time Step           :     5.00 sec
  Percent in Steady State     :     0.00
  Average Iterations per Step :     2.19
  Percent Not Converging      :     0.59
  
  
  ***************************
  Subcatchment Runoff Summary
  ***************************
  
  ------------------------------------------------------------------------------------------------------------------------------
                            Total      Total      Total      Total     Imperv       Perv      Total       Total     Peak  Runoff
                           Precip      Runon       Evap      Infil     Runoff     Runoff     Runoff      Runoff   Runoff   Coeff
  Subcatchment                 mm         mm         mm         mm         mm         mm         mm    10^6 ltr      CMS
  ------------------------------------------------------------------------------------------------------------------------------
  SC01                      12.96       0.00       0.00       0.00      12.87       0.00      12.87        4.25     1.15   0.993
  SC02                      12.96       0.00       0.00       0.00      12.87       0.00      12.87        2.93     0.78   0.993
  SC03                      12.96       0.00       0.00       0.00      12.89       0.00      12.89        2.32     0.66   0.995
  SC04                      12.96       0.00       0.00       0.00      12.76       0.00      12.76        0.88     0.21   0.985
  SC05                      12.96       0.00       0.00       0.00      12.87       0.00      12.87        2.01     0.54   0.993
  SC06                      12.96       0.00       0.00       0.00      12.70       0.00      12.70        4.13     0.93   0.980
  SC07                      12.96       0.00       0.00       0.00      12.76       0.00      12.76        0.61     0.14   0.985
  SC08                      12.96       0.00       0.00       0.00      12.84       0.00      12.84        3.60     0.92   0.991
  SC09                      12.96       0.00       0.00       0.00      12.81       0.00      12.81        0.88     0.22   0.989
  SC010                     12.96       0.00       0.00       0.00      12.85       0.00      12.85        1.51     0.39   0.991
  
  
  ******************
  Node Depth Summary
  ******************
  
  ---------------------------------------------------------------------------------
                                 Average  Maximum  Maximum  Time of Max    Reported
                                   Depth    Depth      HGL   Occurrence   Max Depth
  Node                 Type       Meters   Meters   Meters  days hr:min      Meters
  ---------------------------------------------------------------------------------
  J1                   JUNCTION     0.09     0.25    34.25     0  02:42        0.25
  J3                   JUNCTION     0.14     0.17    18.17     0  03:37        0.17
  CSO7                 JUNCTION     0.25     1.20    35.20     0  02:11        1.20
  J5                   JUNCTION     0.07     0.18    32.18     0  02:46        0.18
  CSO9                 JUNCTION     0.34     2.00    42.00     0  02:22        2.00
  J8                   JUNCTION     0.13     0.34    36.34     0  02:47        0.34
  CSO8                 JUNCTION     0.36     2.00    34.00     0  02:19        2.00
  J10                  JUNCTION     0.11     0.32    29.32     0  02:42        0.32
  J13                  JUNCTION     0.08     0.24    29.24     0  02:42        0.24
  J15                  JUNCTION     0.23     0.44    15.44     0  02:45        0.44
  J16                  JUNCTION     0.08     0.26    30.26     0  02:42        0.26
  CSO10                JUNCTION     0.21     1.00    31.00     0  02:18        1.00
  J12                  JUNCTION     0.67     1.05    27.05     0  03:15        1.05
  J4                   JUNCTION     0.20     1.21    34.21     0  02:11        1.12
  J6                   JUNCTION     0.09     0.12    25.12     0  03:37        0.12
  J2                   JUNCTION     0.07     0.08    25.08     0  03:28        0.08
  J19                  JUNCTION     0.15     0.17     8.17     0  02:18        0.17
  J9                   JUNCTION     0.13     0.16    29.16     0  03:51        0.16
  J14                  JUNCTION     0.15     0.19    20.19     0  06:18        0.19
  J17                  JUNCTION     0.11     0.15    20.15     0  03:20        0.15
  J7                   JUNCTION     0.10     0.23    39.23     0  03:05        0.23
  J11                  JUNCTION     0.12     0.30    31.30     0  03:05        0.30
  J18                  JUNCTION     0.06     0.16    29.16     0  02:56        0.16
  Out_to_WWTP          OUTFALL      0.15     0.17     6.17     0  02:17        0.17
  T5                   STORAGE      3.51     5.00    32.00     0  02:37        5.00
  T4                   STORAGE      2.52     5.00    32.00     0  03:19        5.00
  T6                   STORAGE      2.85     5.00    36.00     0  02:35        5.00
  T3                   STORAGE      3.49     5.00    27.00     0  03:09        5.00
  T2                   STORAGE      2.49     5.00    26.00     0  02:57        5.00
  T1                   STORAGE      3.83     5.00    15.00     0  02:16        5.00
  
  
  *******************
  Node Inflow Summary
  *******************
  
  -------------------------------------------------------------------------------------------------
                                  Maximum  Maximum                  Lateral       Total        Flow
                                  Lateral    Total  Time of Max      Inflow      Inflow     Balance
                                   Inflow   Inflow   Occurrence      Volume      Volume       Error
  Node                 Type           CMS      CMS  days hr:min    10^6 ltr    10^6 ltr     Percent
  -------------------------------------------------------------------------------------------------
  J1                   JUNCTION     0.556    0.556     0  02:42        2.57        2.57       0.011
  J3                   JUNCTION     0.000    0.309     0  03:31           0        6.27       0.787
  CSO7                 JUNCTION     0.153    0.153     0  02:45       0.897       0.897       0.051
  J5                   JUNCTION     0.212    0.285     0  02:45        1.01        1.74       0.062
  CSO9                 JUNCTION     0.226    0.226     0  02:44        1.08        1.08       0.043
  J8                   JUNCTION     0.969    1.096     0  02:46        5.08           6       0.061
  CSO8                 JUNCTION     0.931    0.931     0  02:43        3.89        3.89       0.013
  J10                  JUNCTION     0.670    1.155     0  02:41        2.71         5.9      -0.053
  J13                  JUNCTION     0.799    0.799     0  02:42        3.39        3.39      -0.169
  J15                  JUNCTION     0.000    1.740     0  02:43           0        14.9       0.804
  J16                  JUNCTION     1.167    1.167     0  02:42         4.8         4.8      -0.032
  CSO10                JUNCTION     0.394    0.394     0  02:43        1.65        1.65       0.020
  J12                  JUNCTION     0.000    1.325     0  02:42           0        9.27       7.553
  J4                   JUNCTION     0.000    0.072     0  02:46           0       0.736       0.459
  J6                   JUNCTION     0.000    0.080     0  03:19           0        1.43       0.391
  J2                   JUNCTION     0.000    0.039     0  02:37           0       0.857       0.619
  J19                  JUNCTION     0.000    0.271     0  02:16           0        6.12       0.207
  J9                   JUNCTION     0.000    0.175     0  02:35           0        3.38       0.552
  J14                  JUNCTION     0.000    0.190     0  03:09           0        4.01       0.250
  J17                  JUNCTION     0.000    0.140     0  02:57           0        2.49       0.459
  J7                   JUNCTION     0.000    0.127     0  03:05           0       0.928       0.334
  J11                  JUNCTION     0.000    0.486     0  02:23           0         3.2       0.202
  J18                  JUNCTION     0.000    0.202     0  02:56           0        1.35       0.028
  Out_to_WWTP          OUTFALL      0.000    0.271     0  02:18           0         6.1       0.000
  T5                   STORAGE      0.000    0.555     0  02:42           0        2.57      18.472
  T4                   STORAGE      0.000    0.284     0  02:46           0        1.74       7.619
  T6                   STORAGE      0.000    1.095     0  02:47           0           6       4.934
  T3                   STORAGE      0.000    1.315     0  02:44           0        8.62      18.415
  T2                   STORAGE      0.000    0.798     0  02:42           0         3.4      10.409
  T1                   STORAGE      0.000    1.721     0  02:45           0        14.7       5.958
  
  
  **********************
  Node Surcharge Summary
  **********************
  
  Surcharging occurs when water rises above the top of the highest conduit.
  ---------------------------------------------------------------------
                                               Max. Height   Min. Depth
                                   Hours       Above Crown    Below Rim
  Node                 Type      Surcharged         Meters       Meters
  ---------------------------------------------------------------------
  CSO7                 JUNCTION        1.23          0.945        0.000
  CSO9                 JUNCTION        1.24          1.682        0.000
  CSO8                 JUNCTION        1.19          1.547        0.000
  CSO10                JUNCTION        0.91          0.560        0.000
  J4                   JUNCTION        1.19          0.909        0.791
  
  
  *********************
  Node Flooding Summary
  *********************
  
  Flooding refers to all water that overflows a node, whether it ponds or not.
  --------------------------------------------------------------------------
                                                             Total   Maximum
                                 Maximum   Time of Max       Flood    Ponded
                        Hours       Rate    Occurrence      Volume     Depth
  Node                 Flooded       CMS   days hr:min    10^6 ltr    Meters
  --------------------------------------------------------------------------
  CSO7                    1.04     0.081      0  02:45       0.160     0.000
  CSO9                    0.73     0.099      0  02:44       0.152     0.000
  CSO8                    0.76     0.445      0  02:43       0.684     0.000
  CSO10                   0.78     0.192      0  02:43       0.296     0.000
  T5                      1.44     0.516      0  02:42       0.909     0.000
  T4                      0.29     0.053      0  03:19       0.028     0.000
  T6                      1.34     0.920      0  02:47       2.155     0.000
  T3                      1.59     0.739      0  03:18       0.753     0.000
  T2                      0.39     0.475      0  02:57       0.276     0.000
  T1                      5.56     1.450      0  02:46       7.098     0.000
  
  
  **********************
  Storage Volume Summary
  **********************
  
  --------------------------------------------------------------------------------------------------
                         Average     Avg  Evap Exfil       Maximum     Max    Time of Max    Maximum
                          Volume    Pcnt  Pcnt  Pcnt        Volume    Pcnt     Occurrence    Outflow
  Storage Unit           1000 m3    Full  Loss  Loss       1000 m3    Full    days hr:min        CMS
  --------------------------------------------------------------------------------------------------
  T5                       0.351      70     0     0         0.500     100       0  02:37      0.039
  T4                       0.252      50     0     0         0.500     100       0  03:19      0.080
  T6                       0.342      57     0     0         0.600     100       0  02:35      0.175
  T3                       1.816      70     0     0         2.600     100       0  03:09      0.230
  T2                       0.498      50     0     0         1.000     100       0  02:57      0.140
  T1                       0.536      77     0     0         0.700     100       0  02:16      0.271
  
  
  ***********************
  Outfall Loading Summary
  ***********************
  
  -----------------------------------------------------------
                         Flow       Avg       Max       Total
                         Freq      Flow      Flow      Volume
  Outfall Node           Pcnt       CMS       CMS    10^6 ltr
  -----------------------------------------------------------
  Out_to_WWTP           99.01     0.219     0.271       6.104
  -----------------------------------------------------------
  System                99.01     0.219     0.271       6.104
  
  
  ********************
  Link Flow Summary
  ********************
  
  -----------------------------------------------------------------------------
                                 Maximum  Time of Max   Maximum    Max/    Max/
                                  |Flow|   Occurrence   |Veloc|    Full    Full
  Link                 Type          CMS  days hr:min     m/sec    Flow   Depth
  -----------------------------------------------------------------------------
  C1                   CONDUIT     0.039     0  03:28      0.91    0.01    0.13
  C6                   CONDUIT     0.072     0  02:45      1.29    1.15    0.80
  C2                   CONDUIT     0.080     0  03:37      1.48    0.09    0.25
  C9                   CONDUIT     0.127     0  03:06      1.29    0.43    0.57
  C16                  CONDUIT     0.488     0  02:31      1.80    0.05    0.15
  C3                   CONDUIT     0.190     0  03:11      2.05    0.07    0.18
  C19                  CONDUIT     0.140     0  03:21      1.24    0.05    0.29
  C11                  CONDUIT     0.309     0  03:37      1.85    0.02    0.15
  C20                  CONDUIT     1.166     0  02:42      3.19    0.04    0.18
  C22                  CONDUIT     0.202     0  02:56      1.47    0.09    0.38
  C12                  CONDUIT     0.175     0  03:51      0.76    0.01    0.30
  C17                  CONDUIT     1.151     0  02:42      3.14    0.06    0.31
  C10                  CONDUIT     1.095     0  02:47      1.66    0.11    0.61
  C13                  CONDUIT     1.315     0  02:44      1.53    0.08    0.76
  C18                  CONDUIT     0.798     0  02:42      1.72    0.03    0.56
  C23                  CONDUIT     1.721     0  02:45      1.42    0.19    0.65
  C4                   CONDUIT     0.555     0  02:42      1.98    0.13    0.62
  C7                   CONDUIT     0.284     0  02:46      1.43    0.07    0.59
  C14                  CONDUIT     0.271     0  02:18      2.08    0.02    0.09
  C5                   CONDUIT     0.072     0  02:46      1.41    1.24    1.00
  C8                   CONDUIT     0.127     0  03:05      1.75    1.60    0.86
  C15                  CONDUIT     0.486     0  02:23      3.42    1.55    0.83
  C21                  CONDUIT     0.202     0  02:56      1.82    1.16    0.69
  V4                   ORIFICE     0.080     0  03:19                      1.00
  V5                   ORIFICE     0.039     0  02:37                      1.00
  V1                   ORIFICE     0.271     0  02:16                      1.00
  V6                   ORIFICE     0.175     0  02:35                      1.00
  V3                   ORIFICE     0.190     0  03:09                      1.00
  V2                   ORIFICE     0.140     0  02:57                      1.00
  
  
  ***************************
  Flow Classification Summary
  ***************************
  
  -------------------------------------------------------------------------------------
                      Adjusted    ---------- Fraction of Time in Flow Class ---------- 
                       /Actual         Up    Down  Sub   Sup   Up    Down  Norm  Inlet 
  Conduit               Length    Dry  Dry   Dry   Crit  Crit  Crit  Crit  Ltd   Ctrl  
  -------------------------------------------------------------------------------------
  C1                      1.00   0.00  0.00  0.00  0.92  0.08  0.00  0.00  0.95  0.00
  C6                      1.00   0.00  0.00  0.00  0.18  0.82  0.00  0.00  0.00  0.00
  C2                      1.00   0.00  0.00  0.00  0.01  0.99  0.00  0.00  0.94  0.00
  C9                      1.00   0.00  0.00  0.00  1.00  0.00  0.00  0.00  1.00  0.00
  C16                     1.00   0.00  0.00  0.00  0.54  0.46  0.00  0.00  0.42  0.00
  C3                      1.00   0.00  0.00  0.00  0.05  0.94  0.00  0.00  0.07  0.00
  C19                     1.00   0.00  0.00  0.00  0.61  0.39  0.00  0.00  1.00  0.00
  C11                     1.00   0.00  0.00  0.00  0.31  0.68  0.00  0.00  1.00  0.00
  C20                     1.00   0.00  0.00  0.00  0.63  0.37  0.00  0.00  0.98  0.00
  C22                     1.00   0.00  0.00  0.00  0.84  0.16  0.00  0.00  1.00  0.00
  C12                     1.00   0.00  0.00  0.00  0.93  0.06  0.00  0.00  1.00  0.00
  C17                     1.00   0.00  0.00  0.00  0.63  0.37  0.00  0.00  0.96  0.00
  C10                     1.00   0.00  0.00  0.00  0.94  0.06  0.00  0.00  0.97  0.00
  C13                     1.00   0.00  0.00  0.00  0.83  0.17  0.00  0.00  0.27  0.00
  C18                     1.00   0.00  0.00  0.00  0.82  0.18  0.00  0.00  0.97  0.00
  C23                     1.00   0.00  0.00  0.00  0.90  0.10  0.00  0.00  0.94  0.00
  C4                      1.00   0.00  0.00  0.00  0.96  0.04  0.00  0.00  0.98  0.00
  C7                      1.00   0.00  0.00  0.00  0.91  0.09  0.00  0.00  0.96  0.00
  C14                     1.00   0.00  0.00  0.00  0.00  0.99  0.00  0.00  0.00  0.00
  C5                      1.00   0.00  0.00  0.00  0.90  0.10  0.00  0.00  0.82  0.00
  C8                      1.00   0.00  0.00  0.00  0.20  0.80  0.00  0.00  0.00  0.00
  C15                     1.00   0.00  0.00  0.00  0.00  1.00  0.00  0.00  0.00  0.00
  C21                     1.00   0.00  0.00  0.00  0.00  1.00  0.00  0.00  0.00  0.00
  
  
  *************************
  Conduit Surcharge Summary
  *************************
  
  ----------------------------------------------------------------------------
                                                           Hours        Hours 
                         --------- Hours Full --------   Above Full   Capacity
  Conduit                Both Ends  Upstream  Dnstream   Normal Flow   Limited
  ----------------------------------------------------------------------------
  C6                          0.01      1.19      0.01      1.09         0.01
  C10                         0.01      0.01      5.84      0.01         0.01
  C13                         0.01      0.01      5.52      0.01         0.01
  C18                         0.01      0.01      4.73      0.01         0.01
  C23                         0.01      0.01      6.10      0.01         0.01
  C4                          0.01      0.01      6.13      0.01         0.01
  C7                          0.01      0.01      5.74      0.01         0.01
  C5                          1.23      1.23      1.33      1.30         1.20
  C8                          0.01      1.24      0.01      1.27         0.01
  C15                         0.01      1.19      0.01      1.28         0.01
  C21                         0.01      0.91      0.01      0.92         0.01
  

  Analysis begun on:  Fri Sep  3 18:58:56 2021
  Analysis ended on:  Fri Sep  3 18:58:56 2021
  Total elapsed time: < 1 sec