
  EPA STORM WATER MANAGEMENT MODEL - VERSION 5.1 (Build 5.3.0.dev0)
  --------------------------------------------------------------

  
  *********************************************************
  NOTE: The summary statistics displayed in this report are
  based on results found at every computational time step,  
  not just on results from each reporting time step.
  *********************************************************
  
  ****************
  Analysis Options
  ****************
  Flow Units ............... CMS
  Process Models:
    Rainfall/Runoff ........ YES
    RDII ................... NO
    Snowmelt ............... NO
    Groundwater ............ NO
    Flow Routing ........... YES
    Ponding Allowed ........ YES
    Water Quality .......... NO
  Infiltration Method ...... HORTON
  Flow Routing Method ...... DYNWAVE
  Surcharge Method ......... EXTRAN
  Starting Date ............ 08/28/2015 08:00:00
  Ending Date .............. 08/28/2015 15:50:00
  Antecedent Dry Days ...... 0.0
  Report Time Step ......... 00:01:00
  Wet Time Step ............ 00:01:00
  Dry Time Step ............ 00:01:00
  Routing Time Step ........ 5.00 sec
  Variable Time Step ....... YES
  Maximum Trials ........... 8
  Number of Threads ........ 1
  Head Tolerance ........... 0.001500 m
  
  
  **************************        Volume         Depth
  Runoff Quantity Continuity     hectare-m            mm
  **************************     ---------       -------
  Total Precipitation ......         1.564         8.678
  Evaporation Loss .........         0.000         0.000
  Infiltration Loss ........         0.000         0.000
  Surface Runoff ...........         1.541         8.550
  Final Storage ............         0.023         0.129
  Continuity Error (%) .....        -0.006
  
  
  **************************        Volume        Volume
  Flow Routing Continuity        hectare-m      10^6 ltr
  **************************     ---------     ---------
  Dry Weather Inflow .......         0.396         3.955
  Wet Weather Inflow .......         1.541        15.407
  Groundwater Inflow .......         0.000         0.000
  RDII Inflow ..............         0.000         0.000
  External Inflow ..........         0.000         0.000
  External Outflow .........         0.604         6.042
  Flooding Loss ............         0.584         5.838
  Evaporation Loss .........         0.000         0.000
  Exfiltration Loss ........         0.000         0.000
  Initial Stored Volume ....         0.000         0.000
  Final Stored Volume ......         0.602         6.023
  Continuity Error (%) .....         7.535
  
  
  *************************
  Highest Continuity Errors
  *************************
  Node T5 (20.94%)
  Node T3 (16.88%)
  Node T2 (7.17%)
  Node T1 (6.74%)
  Node T4 (5.73%)
  
  
  ***************************
  Time-Step Critical Elements
  ***************************
  None
  
  
  ********************************
  Highest Flow Instability Indexes
  ********************************
  Link C13 (2)
  
  
  *************************
  Routing Time Step Summary
  *************************
  Minimum Time Step           :     4.50 sec
  Average Time Step           :     5.00 sec
  Maximum Time Step           :     5.00 sec
  Percent in Steady State     :     0.00
  Average Iterations per Step :     2.20
  Percent Not Converging      :     0.55
  
  
  ***************************
  Subcatchment Runoff Summary
  ***************************
  
  ------------------------------------------------------------------------------------------------------------------------------
                            Total      Total      Total      Total     Imperv       Perv      Total       Total     Peak  Runoff
                           Precip      Runon       Evap      Infil     Runoff     Runoff     Runoff      Runoff   Runoff   Coeff
  Subcatchment                 mm         mm         mm         mm         mm         mm         mm    10^6 ltr      CMS
  ------------------------------------------------------------------------------------------------------------------------------
  SC01                       8.68       0.00       0.00       0.00       8.59       0.00       8.59        2.84     0.69   0.990
  SC02                       8.68       0.00       0.00       0.00       8.59       0.00       8.59        1.95     0.47   0.990
  SC03                       8.68       0.00       0.00       0.00       8.61       0.00       8.61        1.55     0.40   0.992
  SC04                       8.68       0.00       0.00       0.00       8.49       0.00       8.49        0.59     0.12   0.978
  SC05                       8.68       0.00       0.00       0.00       8.59       0.00       8.59        1.34     0.32   0.990
  SC06                       8.68       0.00       0.00       0.00       8.44       0.00       8.44        2.75     0.53   0.972
  SC07                       8.68       0.00       0.00       0.00       8.49       0.00       8.49        0.40     0.08   0.978
  SC08                       8.68       0.00       0.00       0.00       8.56       0.00       8.56        2.40     0.54   0.987
  SC09                       8.68       0.00       0.00       0.00       8.54       0.00       8.54        0.59     0.13   0.984
  SC010                      8.68       0.00       0.00       0.00       8.57       0.00       8.57        1.01     0.23   0.987
  
  
  ******************
  Node Depth Summary
  ******************
  
  ---------------------------------------------------------------------------------
                                 Average  Maximum  Maximum  Time of Max    Reported
                                   Depth    Depth      HGL   Occurrence   Max Depth
  Node                 Type       Meters   Meters   Meters  days hr:min      Meters
  ---------------------------------------------------------------------------------
  J1                   JUNCTION     0.08     0.19    34.19     0  02:19        0.19
  J3                   JUNCTION     0.13     0.17    18.17     0  03:45        0.17
  CSO7                 JUNCTION     0.21     1.20    35.20     0  02:12        1.20
  J5                   JUNCTION     0.07     0.15    32.15     0  02:24        0.15
  CSO9                 JUNCTION     0.24     2.00    42.00     0  02:15        2.00
  J8                   JUNCTION     0.12     0.27    36.27     0  02:26        0.27
  CSO8                 JUNCTION     0.26     2.00    34.00     0  02:13        2.00
  J10                  JUNCTION     0.10     0.29    29.29     0  02:19        0.29
  J13                  JUNCTION     0.07     0.19    29.19     0  02:19        0.19
  J15                  JUNCTION     0.21     0.36    15.36     0  02:24        0.36
  J16                  JUNCTION     0.07     0.21    30.21     0  02:19        0.21
  CSO10                JUNCTION     0.17     1.00    31.00     0  02:11        1.00
  J12                  JUNCTION     0.45     0.72    26.72     0  05:17        0.72
  J4                   JUNCTION     0.18     1.45    34.45     0  02:12        0.75
  J6                   JUNCTION     0.09     0.11    25.11     0  03:30        0.11
  J2                   JUNCTION     0.07     0.08    25.08     0  03:35        0.08
  J19                  JUNCTION     0.15     0.17     8.17     0  02:21        0.17
  J9                   JUNCTION     0.13     0.16    29.16     0  03:40        0.16
  J14                  JUNCTION     0.15     0.18    20.18     0  06:07        0.18
  J17                  JUNCTION     0.10     0.14    20.14     0  03:16        0.14
  J7                   JUNCTION     0.09     0.23    39.23     0  02:29        0.23
  J11                  JUNCTION     0.11     0.30    31.30     0  02:32        0.30
  J18                  JUNCTION     0.06     0.16    29.16     0  02:32        0.16
  Out_to_WWTP          OUTFALL      0.14     0.17     6.17     0  02:20        0.17
  T5                   STORAGE      3.45     5.00    32.00     0  02:45        5.00
  T4                   STORAGE      1.76     3.55    30.55     0  03:28        3.55
  T6                   STORAGE      2.69     5.00    36.00     0  02:40        5.00
  T3                   STORAGE      3.22     4.72    26.72     0  05:21        4.72
  T2                   STORAGE      1.70     3.51    24.51     0  03:15        3.51
  T1                   STORAGE      3.77     5.00    15.00     0  02:20        5.00
  
  
  *******************
  Node Inflow Summary
  *******************
  
  -------------------------------------------------------------------------------------------------
                                  Maximum  Maximum                  Lateral       Total        Flow
                                  Lateral    Total  Time of Max      Inflow      Inflow     Balance
                                   Inflow   Inflow   Occurrence      Volume      Volume       Error
  Node                 Type           CMS      CMS  days hr:min    10^6 ltr    10^6 ltr     Percent
  -------------------------------------------------------------------------------------------------
  J1                   JUNCTION     0.340    0.340     0  02:19         1.9         1.9       0.022
  J3                   JUNCTION     0.000    0.288     0  03:43           0        5.87       0.803
  CSO7                 JUNCTION     0.092    0.092     0  02:23       0.694       0.694       0.065
  J5                   JUNCTION     0.123    0.194     0  02:23       0.713        1.37       0.084
  CSO9                 JUNCTION     0.135    0.135     0  02:21       0.785       0.785       0.050
  J8                   JUNCTION     0.560    0.687     0  02:25        3.69        4.46       0.085
  CSO8                 JUNCTION     0.554    0.554     0  02:20        2.69        2.69       0.013
  J10                  JUNCTION     0.410    0.896     0  02:18        1.94        4.57       0.040
  J13                  JUNCTION     0.484    0.484     0  02:19        2.42        2.42      -0.229
  J15                  JUNCTION     0.000    1.165     0  02:21           0        12.4       0.899
  J16                  JUNCTION     0.707    0.707     0  02:19        3.39        3.39      -0.025
  CSO10                JUNCTION     0.235    0.235     0  02:20        1.15        1.15       0.017
  J12                  JUNCTION     0.000    1.015     0  02:20           0        7.84       4.824
  J4                   JUNCTION     0.000    0.075     0  02:12           0       0.661       0.503
  J6                   JUNCTION     0.000    0.067     0  03:28           0         1.2       0.384
  J2                   JUNCTION     0.000    0.039     0  02:45           0       0.846       0.624
  J19                  JUNCTION     0.000    0.271     0  02:20           0        6.05       0.209
  J9                   JUNCTION     0.000    0.175     0  02:40           0        3.27       0.569
  J14                  JUNCTION     0.000    0.184     0  05:21           0        3.84       0.255
  J17                  JUNCTION     0.000    0.117     0  03:15           0        2.07       0.460
  J7                   JUNCTION     0.000    0.127     0  02:29           0        0.78       0.403
  J11                  JUNCTION     0.000    0.486     0  02:32           0        2.64       0.235
  J18                  JUNCTION     0.000    0.202     0  02:32           0        1.12       0.045
  Out_to_WWTP          OUTFALL      0.000    0.271     0  02:21           0        6.04       0.000
  T5                   STORAGE      0.000    0.340     0  02:19           0         1.9      26.485
  T4                   STORAGE      0.000    0.194     0  02:24           0        1.37       6.078
  T6                   STORAGE      0.000    0.687     0  02:26           0        4.46       6.076
  T3                   STORAGE      0.000    1.007     0  02:23           0        7.48      20.311
  T2                   STORAGE      0.000    0.483     0  02:19           0        2.43       7.722
  T1                   STORAGE      0.000    1.154     0  02:24           0        12.3       7.224
  
  
  **********************
  Node Surcharge Summary
  **********************
  
  Surcharging occurs when water rises above the top of the highest conduit.
  ---------------------------------------------------------------------
                                               Max. Height   Min. Depth
                                   Hours       Above Crown    Below Rim
  Node                 Type      Surcharged         Meters       Meters
  ---------------------------------------------------------------------
  CSO7                 JUNCTION        0.95          0.945        0.000
  CSO9                 JUNCTION        0.97          1.682        0.000
  CSO8                 JUNCTION        0.91          1.547        0.000
  CSO10                JUNCTION        0.57          0.560        0.000
  J4                   JUNCTION        0.93          1.153        0.547
  
  
  *********************
  Node Flooding Summary
  *********************
  
  Flooding refers to all water that overflows a node, whether it ponds or not.
  --------------------------------------------------------------------------
                                                             Total   Maximum
                                 Maximum   Time of Max       Flood    Ponded
                        Hours       Rate    Occurrence      Volume     Depth
  Node                 Flooded       CMS   days hr:min    10^6 ltr    Meters
  --------------------------------------------------------------------------
  CSO7                    0.66     0.022      0  02:23       0.032     0.000
  CSO9                    0.24     0.008      0  02:21       0.005     0.000
  CSO8                    0.32     0.068      0  02:20       0.049     0.000
  CSO10                   0.34     0.033      0  02:20       0.025     0.000
  T5                      1.07     0.185      0  02:45       0.257     0.000
  T6                      1.00     0.456      0  02:40       0.775     0.000
  T1                      5.50     0.884      0  02:24       4.695     0.000
  
  
  **********************
  Storage Volume Summary
  **********************
  
  --------------------------------------------------------------------------------------------------
                         Average     Avg  Evap Exfil       Maximum     Max    Time of Max    Maximum
                          Volume    Pcnt  Pcnt  Pcnt        Volume    Pcnt     Occurrence    Outflow
  Storage Unit           1000 m3    Full  Loss  Loss       1000 m3    Full    days hr:min        CMS
  --------------------------------------------------------------------------------------------------
  T5                       0.345      69     0     0         0.500     100       0  02:45      0.039
  T4                       0.176      35     0     0         0.355      71       0  03:28      0.067
  T6                       0.323      54     0     0         0.600     100       0  02:40      0.175
  T3                       1.677      64     0     0         2.455      94       0  05:21      0.235
  T2                       0.341      34     0     0         0.703      70       0  03:15      0.117
  T1                       0.528      75     0     0         0.700     100       0  02:20      0.271
  
  
  ***********************
  Outfall Loading Summary
  ***********************
  
  -----------------------------------------------------------
                         Flow       Avg       Max       Total
                         Freq      Flow      Flow      Volume
  Outfall Node           Pcnt       CMS       CMS    10^6 ltr
  -----------------------------------------------------------
  Out_to_WWTP           99.01     0.216     0.271       6.042
  -----------------------------------------------------------
  System                99.01     0.216     0.271       6.042
  
  
  ********************
  Link Flow Summary
  ********************
  
  -----------------------------------------------------------------------------
                                 Maximum  Time of Max   Maximum    Max/    Max/
                                  |Flow|   Occurrence   |Veloc|    Full    Full
  Link                 Type          CMS  days hr:min     m/sec    Flow   Depth
  -----------------------------------------------------------------------------
  C1                   CONDUIT     0.039     0  03:35      0.91    0.01    0.12
  C6                   CONDUIT     0.071     0  02:24      1.29    1.13    0.75
  C2                   CONDUIT     0.067     0  03:30      1.35    0.08    0.23
  C9                   CONDUIT     0.127     0  02:29      1.30    0.43    0.50
  C16                  CONDUIT     0.487     0  02:18      1.77    0.05    0.15
  C3                   CONDUIT     0.184     0  05:22      2.05    0.07    0.17
  C19                  CONDUIT     0.117     0  03:16      1.13    0.04    0.24
  C11                  CONDUIT     0.288     0  03:45      1.84    0.01    0.13
  C20                  CONDUIT     0.706     0  02:19      2.66    0.02    0.14
  C22                  CONDUIT     0.202     0  02:33      1.50    0.09    0.33
  C12                  CONDUIT     0.175     0  03:38      0.94    0.01    0.22
  C17                  CONDUIT     0.892     0  02:19      2.95    0.04    0.19
  C10                  CONDUIT     0.687     0  02:26      1.66    0.07    0.59
  C13                  CONDUIT     1.007     0  02:23      1.53    0.06    0.68
  C18                  CONDUIT     0.483     0  02:19      1.72    0.02    0.55
  C23                  CONDUIT     1.154     0  02:24      1.26    0.13    0.62
  C4                   CONDUIT     0.340     0  02:19      1.98    0.08    0.60
  C7                   CONDUIT     0.194     0  02:24      1.43    0.05    0.57
  C14                  CONDUIT     0.271     0  02:21      2.08    0.02    0.09
  C5                   CONDUIT     0.075     0  02:12      1.47    1.28    1.00
  C8                   CONDUIT     0.127     0  02:29      1.76    1.60    0.86
  C15                  CONDUIT     0.486     0  02:32      3.43    1.55    0.83
  C21                  CONDUIT     0.202     0  02:32      1.83    1.16    0.69
  V4                   ORIFICE     0.067     0  03:28                      1.00
  V5                   ORIFICE     0.039     0  02:45                      1.00
  V1                   ORIFICE     0.271     0  02:20                      1.00
  V6                   ORIFICE     0.175     0  02:40                      1.00
  V3                   ORIFICE     0.184     0  05:21                      1.00
  V2                   ORIFICE     0.117     0  03:15                      1.00
  
  
  ***************************
  Flow Classification Summary
  ***************************
  
  -------------------------------------------------------------------------------------
                      Adjusted    ---------- Fraction of Time in Flow Class ---------- 
                       /Actual         Up    Down  Sub   Sup   Up    Down  Norm  Inlet 
  Conduit               Length    Dry  Dry   Dry   Crit  Crit  Crit  Crit  Ltd   Ctrl  
  -------------------------------------------------------------------------------------
  C1                      1.00   0.00  0.00  0.00  0.92  0.08  0.00  0.00  0.95  0.00
  C6                      1.00   0.00  0.00  0.00  0.14  0.86  0.00  0.00  0.00  0.00
  C2                      1.00   0.00  0.00  0.00  0.03  0.96  0.00  0.00  0.94  0.00
  C9                      1.00   0.00  0.00  0.00  1.00  0.00  0.00  0.00  1.00  0.00
  C16                     1.00   0.00  0.00  0.00  0.57  0.43  0.00  0.00  0.46  0.00
  C3                      1.00   0.00  0.00  0.00  0.05  0.94  0.00  0.00  0.07  0.00
  C19                     1.00   0.00  0.00  0.00  0.87  0.13  0.00  0.00  1.00  0.00
  C11                     1.00   0.00  0.00  0.00  0.28  0.72  0.00  0.00  1.00  0.00
  C20                     1.00   0.00  0.00  0.00  0.64  0.36  0.00  0.00  0.98  0.00
  C22                     1.00   0.00  0.00  0.00  0.84  0.16  0.00  0.00  1.00  0.00
  C12                     1.00   0.00  0.00  0.00  0.93  0.07  0.00  0.00  1.00  0.00
  C17                     1.00   0.00  0.00  0.00  0.60  0.40  0.00  0.00  0.97  0.00
  C10                     1.00   0.00  0.00  0.00  0.94  0.06  0.00  0.00  0.97  0.00
  C13                     1.00   0.00  0.00  0.00  0.84  0.16  0.00  0.00  0.30  0.00
  C18                     1.00   0.00  0.00  0.00  0.82  0.18  0.00  0.00  0.97  0.00
  C23                     1.00   0.00  0.00  0.00  0.90  0.10  0.00  0.00  0.94  0.00
  C4                      1.00   0.00  0.00  0.00  0.96  0.04  0.00  0.00  0.98  0.00
  C7                      1.00   0.00  0.00  0.00  0.91  0.09  0.00  0.00  0.96  0.00
  C14                     1.00   0.00  0.00  0.00  0.00  0.99  0.00  0.00  0.00  0.00
  C5                      1.00   0.00  0.00  0.00  0.90  0.10  0.00  0.00  0.86  0.00
  C8                      1.00   0.00  0.00  0.00  0.15  0.85  0.00  0.00  0.00  0.00
  C15                     1.00   0.00  0.00  0.00  0.00  1.00  0.00  0.00  0.00  0.00
  C21                     1.00   0.00  0.00  0.00  0.01  0.99  0.00  0.00  0.00  0.00
  
  
  *************************
  Conduit Surcharge Summary
  *************************
  
  ----------------------------------------------------------------------------
                                                           Hours        Hours 
                         --------- Hours Full --------   Above Full   Capacity
  Conduit                Both Ends  Upstream  Dnstream   Normal Flow   Limited
  ----------------------------------------------------------------------------
  C6                          0.01      0.93      0.01      0.83         0.01
  C10                         0.01      0.01      5.54      0.01         0.01
  C13                         0.01      0.01      5.46      0.01         0.01
  C18                         0.01      0.01      3.25      0.01         0.01
  C23                         0.01      0.01      6.01      0.01         0.01
  C4                          0.01      0.01      6.03      0.01         0.01
  C7                          0.01      0.01      5.55      0.01         0.01
  C5                          0.94      0.95      1.04      0.99         0.91
  C8                          0.01      0.97      0.01      0.98         0.01
  C15                         0.01      0.91      0.01      0.98         0.01
  C21                         0.01      0.57      0.01      0.52         0.01
  

  Analysis begun on:  Fri Sep  3 18:59:06 2021
  Analysis ended on:  Fri Sep  3 18:59:06 2021
  Total elapsed time: < 1 sec