
  EPA STORM WATER MANAGEMENT MODEL - VERSION 5.1 (Build 5.3.0.dev0)
  --------------------------------------------------------------

  
  *********************************************************
  NOTE: The summary statistics displayed in this report are
  based on results found at every computational time step,  
  not just on results from each reporting time step.
  *********************************************************
  
  ****************
  Analysis Options
  ****************
  Flow Units ............... CMS
  Process Models:
    Rainfall/Runoff ........ YES
    RDII ................... NO
    Snowmelt ............... NO
    Groundwater ............ NO
    Flow Routing ........... YES
    Ponding Allowed ........ YES
    Water Quality .......... NO
  Infiltration Method ...... HORTON
  Flow Routing Method ...... DYNWAVE
  Surcharge Method ......... EXTRAN
  Starting Date ............ 08/28/2015 08:00:00
  Ending Date .............. 08/28/2015 15:50:00
  Antecedent Dry Days ...... 0.0
  Report Time Step ......... 00:01:00
  Wet Time Step ............ 00:01:00
  Dry Time Step ............ 00:01:00
  Routing Time Step ........ 5.00 sec
  Variable Time Step ....... YES
  Maximum Trials ........... 8
  Number of Threads ........ 1
  Head Tolerance ........... 0.001500 m
  
  
  **************************        Volume         Depth
  Runoff Quantity Continuity     hectare-m            mm
  **************************     ---------       -------
  Total Precipitation ......         1.995        11.070
  Evaporation Loss .........         0.000         0.000
  Infiltration Loss ........         0.000         0.000
  Surface Runoff ...........         1.971        10.940
  Final Storage ............         0.023         0.130
  Continuity Error (%) .....        -0.006
  
  
  **************************        Volume        Volume
  Flow Routing Continuity        hectare-m      10^6 ltr
  **************************     ---------     ---------
  Dry Weather Inflow .......         0.396         3.955
  Wet Weather Inflow .......         1.971        19.714
  Groundwater Inflow .......         0.000         0.000
  RDII Inflow ..............         0.000         0.000
  External Inflow ..........         0.000         0.000
  External Outflow .........         0.612         6.117
  Flooding Loss ............         0.930         9.305
  Evaporation Loss .........         0.000         0.000
  Exfiltration Loss ........         0.000         0.000
  Initial Stored Volume ....         0.000         0.000
  Final Stored Volume ......         0.671         6.713
  Continuity Error (%) .....         6.487
  
  
  *************************
  Highest Continuity Errors
  *************************
  Node T5 (17.50%)
  Node T3 (16.40%)
  Node T2 (9.42%)
  Node J12 (7.17%)
  Node T4 (6.45%)
  
  
  ***************************
  Time-Step Critical Elements
  ***************************
  None
  
  
  ********************************
  Highest Flow Instability Indexes
  ********************************
  All links are stable.
  
  
  *************************
  Routing Time Step Summary
  *************************
  Minimum Time Step           :     4.50 sec
  Average Time Step           :     5.00 sec
  Maximum Time Step           :     5.00 sec
  Percent in Steady State     :     0.00
  Average Iterations per Step :     2.20
  Percent Not Converging      :     0.57
  
  
  ***************************
  Subcatchment Runoff Summary
  ***************************
  
  ------------------------------------------------------------------------------------------------------------------------------
                            Total      Total      Total      Total     Imperv       Perv      Total       Total     Peak  Runoff
                           Precip      Runon       Evap      Infil     Runoff     Runoff     Runoff      Runoff   Runoff   Coeff
  Subcatchment                 mm         mm         mm         mm         mm         mm         mm    10^6 ltr      CMS
  ------------------------------------------------------------------------------------------------------------------------------
  SC01                      11.07       0.00       0.00       0.00      10.98       0.00      10.98        3.62     0.90   0.992
  SC02                      11.07       0.00       0.00       0.00      10.98       0.00      10.98        2.50     0.61   0.992
  SC03                      11.07       0.00       0.00       0.00      11.00       0.00      11.00        1.98     0.51   0.994
  SC04                      11.07       0.00       0.00       0.00      10.88       0.00      10.88        0.75     0.16   0.983
  SC05                      11.07       0.00       0.00       0.00      10.98       0.00      10.98        1.71     0.42   0.992
  SC06                      11.07       0.00       0.00       0.00      10.82       0.00      10.82        3.52     0.70   0.978
  SC07                      11.07       0.00       0.00       0.00      10.88       0.00      10.88        0.52     0.11   0.983
  SC08                      11.07       0.00       0.00       0.00      10.95       0.00      10.95        3.07     0.71   0.990
  SC09                      11.07       0.00       0.00       0.00      10.93       0.00      10.93        0.75     0.17   0.987
  SC010                     11.07       0.00       0.00       0.00      10.96       0.00      10.96        1.29     0.30   0.990
  
  
  ******************
  Node Depth Summary
  ******************
  
  ---------------------------------------------------------------------------------
                                 Average  Maximum  Maximum  Time of Max    Reported
                                   Depth    Depth      HGL   Occurrence   Max Depth
  Node                 Type       Meters   Meters   Meters  days hr:min      Meters
  ---------------------------------------------------------------------------------
  J1                   JUNCTION     0.08     0.22    34.22     0  02:19        0.22
  J3                   JUNCTION     0.14     0.17    18.17     0  03:36        0.17
  CSO7                 JUNCTION     0.25     1.20    35.20     0  02:03        1.20
  J5                   JUNCTION     0.07     0.16    32.16     0  02:23        0.16
  CSO9                 JUNCTION     0.32     2.00    42.00     0  02:08        2.00
  J8                   JUNCTION     0.12     0.30    36.30     0  02:25        0.30
  CSO8                 JUNCTION     0.34     2.00    34.00     0  02:06        2.00
  J10                  JUNCTION     0.11     0.30    29.30     0  02:18        0.30
  J13                  JUNCTION     0.07     0.21    29.21     0  02:19        0.21
  J15                  JUNCTION     0.22     0.40    15.40     0  02:23        0.40
  J16                  JUNCTION     0.08     0.23    30.23     0  02:18        0.23
  CSO10                JUNCTION     0.20     1.00    31.00     0  02:05        1.00
  J12                  JUNCTION     0.66     1.01    27.01     0  03:39        1.01
  J4                   JUNCTION     0.20     1.24    34.24     0  02:03        0.77
  J6                   JUNCTION     0.09     0.12    25.12     0  03:30        0.12
  J2                   JUNCTION     0.07     0.08    25.08     0  03:20        0.08
  J19                  JUNCTION     0.15     0.17     8.17     0  02:13        0.17
  J9                   JUNCTION     0.13     0.16    29.16     0  03:41        0.16
  J14                  JUNCTION     0.15     0.19    20.19     0  06:04        0.19
  J17                  JUNCTION     0.11     0.15    20.15     0  03:16        0.15
  J7                   JUNCTION     0.10     0.23    39.23     0  02:44        0.23
  J11                  JUNCTION     0.11     0.30    31.30     0  02:45        0.30
  J18                  JUNCTION     0.06     0.16    29.16     0  02:43        0.16
  Out_to_WWTP          OUTFALL      0.15     0.17     6.17     0  02:12        0.17
  T5                   STORAGE      3.54     5.00    32.00     0  02:29        5.00
  T4                   STORAGE      2.24     4.45    31.45     0  03:29        4.45
  T6                   STORAGE      2.81     5.00    36.00     0  02:27        5.00
  T3                   STORAGE      3.51     5.00    27.00     0  03:31        5.00
  T2                   STORAGE      2.33     4.68    25.68     0  03:14        4.68
  T1                   STORAGE      3.84     5.00    15.00     0  02:12        5.00
  
  
  *******************
  Node Inflow Summary
  *******************
  
  -------------------------------------------------------------------------------------------------
                                  Maximum  Maximum                  Lateral       Total        Flow
                                  Lateral    Total  Time of Max      Inflow      Inflow     Balance
                                   Inflow   Inflow   Occurrence      Volume      Volume       Error
  Node                 Type           CMS      CMS  days hr:min    10^6 ltr    10^6 ltr     Percent
  -------------------------------------------------------------------------------------------------
  J1                   JUNCTION     0.437    0.437     0  02:18        2.27        2.27       0.013
  J3                   JUNCTION     0.000    0.304     0  03:33           0        6.22       0.784
  CSO7                 JUNCTION     0.119    0.119     0  02:22       0.807       0.807       0.059
  J5                   JUNCTION     0.162    0.234     0  02:22       0.878        1.58       0.067
  CSO9                 JUNCTION     0.176    0.176     0  02:21        0.95        0.95       0.046
  J8                   JUNCTION     0.737    0.864     0  02:24        4.46        5.35       0.067
  CSO8                 JUNCTION     0.724    0.724     0  02:20        3.36        3.36       0.013
  J10                  JUNCTION     0.528    1.014     0  02:17        2.37        5.41      -0.031
  J13                  JUNCTION     0.626    0.626     0  02:18        2.97        2.97      -0.200
  J15                  JUNCTION     0.000    1.411     0  02:20           0          14       0.833
  J16                  JUNCTION     0.916    0.916     0  02:18        4.18        4.18      -0.031
  CSO10                JUNCTION     0.306    0.306     0  02:19        1.43        1.43       0.015
  J12                  JUNCTION     0.000    1.154     0  02:19           0        8.77       7.729
  J4                   JUNCTION     0.000    0.074     0  02:03           0       0.709       0.475
  J6                   JUNCTION     0.000    0.075     0  03:29           0        1.35       0.381
  J2                   JUNCTION     0.000    0.039     0  02:29           0       0.861       0.614
  J19                  JUNCTION     0.000    0.271     0  02:12           0        6.13       0.206
  J9                   JUNCTION     0.000    0.175     0  02:27           0        3.35       0.540
  J14                  JUNCTION     0.000    0.190     0  03:31           0        4.03       0.249
  J17                  JUNCTION     0.000    0.136     0  03:14           0        2.42       0.454
  J7                   JUNCTION     0.000    0.127     0  02:44           0       0.888       0.351
  J11                  JUNCTION     0.000    0.486     0  02:44           0        3.05       0.207
  J18                  JUNCTION     0.000    0.202     0  02:43           0        1.29       0.030
  Out_to_WWTP          OUTFALL      0.000    0.271     0  02:14           0        6.12       0.000
  T5                   STORAGE      0.000    0.437     0  02:19           0        2.27      21.206
  T4                   STORAGE      0.000    0.234     0  02:23           0        1.58       6.896
  T6                   STORAGE      0.000    0.864     0  02:25           0        5.35       5.171
  T3                   STORAGE      0.000    1.146     0  02:21           0        8.14      19.621
  T2                   STORAGE      0.000    0.626     0  02:19           0        2.97      10.397
  T1                   STORAGE      0.000    1.397     0  02:23           0        13.9       6.323
  
  
  **********************
  Node Surcharge Summary
  **********************
  
  Surcharging occurs when water rises above the top of the highest conduit.
  ---------------------------------------------------------------------
                                               Max. Height   Min. Depth
                                   Hours       Above Crown    Below Rim
  Node                 Type      Surcharged         Meters       Meters
  ---------------------------------------------------------------------
  CSO7                 JUNCTION        1.17          0.945        0.000
  CSO9                 JUNCTION        1.19          1.682        0.000
  CSO8                 JUNCTION        1.17          1.547        0.000
  CSO10                JUNCTION        0.93          0.560        0.000
  J4                   JUNCTION        1.14          0.941        0.759
  
  
  *********************
  Node Flooding Summary
  *********************
  
  Flooding refers to all water that overflows a node, whether it ponds or not.
  --------------------------------------------------------------------------
                                                             Total   Maximum
                                 Maximum   Time of Max       Flood    Ponded
                        Hours       Rate    Occurrence      Volume     Depth
  Node                 Flooded       CMS   days hr:min    10^6 ltr    Meters
  --------------------------------------------------------------------------
  CSO7                    1.00     0.048      0  02:22       0.098     0.000
  CSO9                    0.61     0.049      0  02:21       0.062     0.000
  CSO8                    0.65     0.238      0  02:20       0.305     0.000
  CSO10                   0.67     0.104      0  02:19       0.136     0.000
  T5                      1.39     0.344      0  02:29       0.615     0.000
  T6                      1.29     0.685      0  02:27       1.559     0.000
  T3                      1.13     0.397      0  03:31       0.257     0.000
  T1                      5.63     1.126      0  02:23       6.273     0.000
  
  
  **********************
  Storage Volume Summary
  **********************
  
  --------------------------------------------------------------------------------------------------
                         Average     Avg  Evap Exfil       Maximum     Max    Time of Max    Maximum
                          Volume    Pcnt  Pcnt  Pcnt        Volume    Pcnt     Occurrence    Outflow
  Storage Unit           1000 m3    Full  Loss  Loss       1000 m3    Full    days hr:min        CMS
  --------------------------------------------------------------------------------------------------
  T5                       0.354      71     0     0         0.500     100       0  02:29      0.039
  T4                       0.224      45     0     0         0.445      89       0  03:29      0.075
  T6                       0.337      56     0     0         0.600     100       0  02:27      0.175
  T3                       1.827      70     0     0         2.600     100       0  03:31      0.294
  T2                       0.466      47     0     0         0.936      94       0  03:14      0.136
  T1                       0.538      77     0     0         0.700     100       0  02:12      0.271
  
  
  ***********************
  Outfall Loading Summary
  ***********************
  
  -----------------------------------------------------------
                         Flow       Avg       Max       Total
                         Freq      Flow      Flow      Volume
  Outfall Node           Pcnt       CMS       CMS    10^6 ltr
  -----------------------------------------------------------
  Out_to_WWTP           99.01     0.219     0.271       6.117
  -----------------------------------------------------------
  System                99.01     0.219     0.271       6.117
  
  
  ********************
  Link Flow Summary
  ********************
  
  -----------------------------------------------------------------------------
                                 Maximum  Time of Max   Maximum    Max/    Max/
                                  |Flow|   Occurrence   |Veloc|    Full    Full
  Link                 Type          CMS  days hr:min     m/sec    Flow   Depth
  -----------------------------------------------------------------------------
  C1                   CONDUIT     0.039     0  03:20      0.91    0.01    0.12
  C6                   CONDUIT     0.072     0  02:23      1.29    1.14    0.77
  C2                   CONDUIT     0.075     0  03:30      1.43    0.09    0.24
  C9                   CONDUIT     0.127     0  02:44      1.29    0.43    0.53
  C16                  CONDUIT     0.489     0  02:13      1.79    0.05    0.15
  C3                   CONDUIT     0.190     0  03:34      2.06    0.07    0.18
  C19                  CONDUIT     0.136     0  03:16      1.22    0.05    0.26
  C11                  CONDUIT     0.304     0  03:36      1.84    0.02    0.14
  C20                  CONDUIT     0.915     0  02:18      2.94    0.03    0.16
  C22                  CONDUIT     0.202     0  02:43      1.50    0.09    0.35
  C12                  CONDUIT     0.175     0  03:41      0.80    0.01    0.29
  C17                  CONDUIT     1.011     0  02:18      3.04    0.05    0.28
  C10                  CONDUIT     0.864     0  02:25      1.66    0.09    0.60
  C13                  CONDUIT     1.146     0  02:21      1.53    0.07    0.75
  C18                  CONDUIT     0.626     0  02:19      1.72    0.02    0.55
  C23                  CONDUIT     1.397     0  02:23      1.26    0.15    0.63
  C4                   CONDUIT     0.437     0  02:19      1.98    0.11    0.61
  C7                   CONDUIT     0.234     0  02:23      1.43    0.06    0.58
  C14                  CONDUIT     0.271     0  02:14      2.08    0.02    0.09
  C5                   CONDUIT     0.074     0  02:03      1.44    1.26    1.00
  C8                   CONDUIT     0.127     0  02:44      1.75    1.60    0.86
  C15                  CONDUIT     0.486     0  02:44      3.42    1.55    0.83
  C21                  CONDUIT     0.202     0  02:43      1.83    1.16    0.69
  V4                   ORIFICE     0.075     0  03:29                      1.00
  V5                   ORIFICE     0.039     0  02:29                      1.00
  V1                   ORIFICE     0.271     0  02:12                      1.00
  V6                   ORIFICE     0.175     0  02:27                      1.00
  V3                   ORIFICE     0.190     0  03:31                      1.00
  V2                   ORIFICE     0.136     0  03:14                      1.00
  
  
  ***************************
  Flow Classification Summary
  ***************************
  
  -------------------------------------------------------------------------------------
                      Adjusted    ---------- Fraction of Time in Flow Class ---------- 
                       /Actual         Up    Down  Sub   Sup   Up    Down  Norm  Inlet 
  Conduit               Length    Dry  Dry   Dry   Crit  Crit  Crit  Crit  Ltd   Ctrl  
  -------------------------------------------------------------------------------------
  C1                      1.00   0.00  0.00  0.00  0.92  0.08  0.00  0.00  0.95  0.00
  C6                      1.00   0.00  0.00  0.00  0.17  0.83  0.00  0.00  0.00  0.00
  C2                      1.00   0.00  0.00  0.00  0.01  0.99  0.00  0.00  0.94  0.00
  C9                      1.00   0.00  0.00  0.00  1.00  0.00  0.00  0.00  1.00  0.00
  C16                     1.00   0.00  0.00  0.00  0.56  0.44  0.00  0.00  0.48  0.00
  C3                      1.00   0.00  0.00  0.00  0.05  0.94  0.00  0.00  0.07  0.00
  C19                     1.00   0.00  0.00  0.00  0.64  0.35  0.00  0.00  1.00  0.00
  C11                     1.00   0.00  0.00  0.00  0.30  0.70  0.00  0.00  1.00  0.00
  C20                     1.00   0.00  0.00  0.00  0.64  0.36  0.00  0.00  0.98  0.00
  C22                     1.00   0.00  0.00  0.00  0.86  0.14  0.00  0.00  1.00  0.00
  C12                     1.00   0.00  0.00  0.00  0.93  0.06  0.00  0.00  1.00  0.00
  C17                     1.00   0.00  0.00  0.00  0.63  0.37  0.00  0.00  0.96  0.00
  C10                     1.00   0.00  0.00  0.00  0.94  0.06  0.00  0.00  0.97  0.00
  C13                     1.00   0.00  0.00  0.00  0.83  0.16  0.00  0.00  0.26  0.00
  C18                     1.00   0.00  0.00  0.00  0.82  0.18  0.00  0.00  0.97  0.00
  C23                     1.00   0.00  0.00  0.00  0.90  0.10  0.00  0.00  0.94  0.00
  C4                      1.00   0.00  0.00  0.00  0.96  0.04  0.00  0.00  0.98  0.00
  C7                      1.00   0.00  0.00  0.00  0.91  0.09  0.00  0.00  0.96  0.00
  C14                     1.00   0.00  0.00  0.00  0.00  0.99  0.00  0.00  0.00  0.00
  C5                      1.00   0.00  0.00  0.00  0.90  0.10  0.00  0.00  0.83  0.00
  C8                      1.00   0.00  0.00  0.00  0.18  0.82  0.00  0.00  0.00  0.00
  C15                     1.00   0.00  0.00  0.00  0.00  1.00  0.00  0.00  0.00  0.00
  C21                     1.00   0.00  0.00  0.00  0.01  0.99  0.00  0.00  0.00  0.00
  
  
  *************************
  Conduit Surcharge Summary
  *************************
  
  ----------------------------------------------------------------------------
                                                           Hours        Hours 
                         --------- Hours Full --------   Above Full   Capacity
  Conduit                Both Ends  Upstream  Dnstream   Normal Flow   Limited
  ----------------------------------------------------------------------------
  C6                          0.01      1.14      0.01      1.05         0.01
  C10                         0.01      0.01      5.74      0.01         0.01
  C13                         0.01      0.01      5.60      0.01         0.01
  C18                         0.01      0.01      4.49      0.01         0.01
  C23                         0.01      0.01      6.11      0.01         0.01
  C4                          0.01      0.01      6.14      0.01         0.01
  C7                          0.01      0.01      5.78      0.01         0.01
  C5                          1.16      1.17      1.26      1.22         1.13
  C8                          0.01      1.19      0.01      1.22         0.01
  C15                         0.01      1.17      0.01      1.24         0.01
  C21                         0.01      0.93      0.01      0.88         0.01
  

  Analysis begun on:  Fri Sep  3 18:59:26 2021
  Analysis ended on:  Fri Sep  3 18:59:26 2021
  Total elapsed time: < 1 sec