
  EPA STORM WATER MANAGEMENT MODEL - VERSION 5.1 (Build 5.3.0.dev0)
  --------------------------------------------------------------

  
  *********************************************************
  NOTE: The summary statistics displayed in this report are
  based on results found at every computational time step,  
  not just on results from each reporting time step.
  *********************************************************
  
  ****************
  Analysis Options
  ****************
  Flow Units ............... CMS
  Process Models:
    Rainfall/Runoff ........ YES
    RDII ................... NO
    Snowmelt ............... NO
    Groundwater ............ NO
    Flow Routing ........... YES
    Ponding Allowed ........ YES
    Water Quality .......... NO
  Infiltration Method ...... HORTON
  Flow Routing Method ...... DYNWAVE
  Surcharge Method ......... EXTRAN
  Starting Date ............ 08/28/2015 08:00:00
  Ending Date .............. 08/28/2015 15:50:00
  Antecedent Dry Days ...... 0.0
  Report Time Step ......... 00:01:00
  Wet Time Step ............ 00:01:00
  Dry Time Step ............ 00:01:00
  Routing Time Step ........ 5.00 sec
  Variable Time Step ....... YES
  Maximum Trials ........... 8
  Number of Threads ........ 1
  Head Tolerance ........... 0.001500 m
  
  
  **************************        Volume         Depth
  Runoff Quantity Continuity     hectare-m            mm
  **************************     ---------       -------
  Total Precipitation ......         2.398        13.308
  Evaporation Loss .........         0.000         0.000
  Infiltration Loss ........         0.000         0.000
  Surface Runoff ...........         2.374        13.175
  Final Storage ............         0.024         0.134
  Continuity Error (%) .....        -0.007
  
  
  **************************        Volume        Volume
  Flow Routing Continuity        hectare-m      10^6 ltr
  **************************     ---------     ---------
  Dry Weather Inflow .......         0.396         3.955
  Wet Weather Inflow .......         2.374        23.741
  Groundwater Inflow .......         0.000         0.000
  RDII Inflow ..............         0.000         0.000
  External Inflow ..........         0.000         0.000
  External Outflow .........         0.611         6.113
  Flooding Loss ............         1.313        13.126
  Evaporation Loss .........         0.000         0.000
  Exfiltration Loss ........         0.000         0.000
  Initial Stored Volume ....         0.000         0.000
  Final Stored Volume ......         0.688         6.882
  Continuity Error (%) .....         5.687
  
  
  *************************
  Highest Continuity Errors
  *************************
  Node T3 (15.35%)
  Node T5 (15.25%)
  Node T2 (9.23%)
  Node T4 (6.97%)
  Node J12 (6.95%)
  
  
  ***************************
  Time-Step Critical Elements
  ***************************
  None
  
  
  ********************************
  Highest Flow Instability Indexes
  ********************************
  All links are stable.
  
  
  *************************
  Routing Time Step Summary
  *************************
  Minimum Time Step           :     4.50 sec
  Average Time Step           :     5.00 sec
  Maximum Time Step           :     5.00 sec
  Percent in Steady State     :     0.00
  Average Iterations per Step :     2.19
  Percent Not Converging      :     0.59
  
  
  ***************************
  Subcatchment Runoff Summary
  ***************************
  
  ------------------------------------------------------------------------------------------------------------------------------
                            Total      Total      Total      Total     Imperv       Perv      Total       Total     Peak  Runoff
                           Precip      Runon       Evap      Infil     Runoff     Runoff     Runoff      Runoff   Runoff   Coeff
  Subcatchment                 mm         mm         mm         mm         mm         mm         mm    10^6 ltr      CMS
  ------------------------------------------------------------------------------------------------------------------------------
  SC01                      13.31       0.00       0.00       0.00      13.22       0.00      13.22        4.36     1.18   0.994
  SC02                      13.31       0.00       0.00       0.00      13.22       0.00      13.22        3.01     0.80   0.993
  SC03                      13.31       0.00       0.00       0.00      13.24       0.00      13.24        2.38     0.67   0.995
  SC04                      13.31       0.00       0.00       0.00      13.11       0.00      13.11        0.90     0.21   0.985
  SC05                      13.31       0.00       0.00       0.00      13.22       0.00      13.22        2.06     0.55   0.993
  SC06                      13.31       0.00       0.00       0.00      13.05       0.00      13.05        4.25     0.96   0.981
  SC07                      13.31       0.00       0.00       0.00      13.11       0.00      13.11        0.62     0.15   0.985
  SC08                      13.31       0.00       0.00       0.00      13.19       0.00      13.19        3.69     0.95   0.991
  SC09                      13.31       0.00       0.00       0.00      13.16       0.00      13.16        0.91     0.23   0.989
  SC010                     13.31       0.00       0.00       0.00      13.19       0.00      13.19        1.55     0.40   0.991
  
  
  ******************
  Node Depth Summary
  ******************
  
  ---------------------------------------------------------------------------------
                                 Average  Maximum  Maximum  Time of Max    Reported
                                   Depth    Depth      HGL   Occurrence   Max Depth
  Node                 Type       Meters   Meters   Meters  days hr:min      Meters
  ---------------------------------------------------------------------------------
  J1                   JUNCTION     0.09     0.25    34.25     0  02:42        0.25
  J3                   JUNCTION     0.14     0.17    18.17     0  03:36        0.17
  CSO7                 JUNCTION     0.26     1.20    35.20     0  02:09        1.20
  J5                   JUNCTION     0.07     0.18    32.18     0  02:45        0.18
  CSO9                 JUNCTION     0.34     2.00    42.00     0  02:20        2.00
  J8                   JUNCTION     0.13     0.34    36.34     0  02:47        0.34
  CSO8                 JUNCTION     0.36     2.00    34.00     0  02:18        2.00
  J10                  JUNCTION     0.11     0.33    29.33     0  02:42        0.33
  J13                  JUNCTION     0.08     0.24    29.24     0  02:42        0.24
  J15                  JUNCTION     0.23     0.45    15.45     0  02:45        0.45
  J16                  JUNCTION     0.08     0.26    30.26     0  02:42        0.26
  CSO10                JUNCTION     0.21     1.00    31.00     0  02:17        1.00
  J12                  JUNCTION     0.67     1.03    27.03     0  03:14        1.03
  J4                   JUNCTION     0.20     1.21    34.21     0  02:09        0.77
  J6                   JUNCTION     0.09     0.12    25.12     0  03:37        0.12
  J2                   JUNCTION     0.07     0.08    25.08     0  03:27        0.08
  J19                  JUNCTION     0.15     0.17     8.17     0  02:16        0.17
  J9                   JUNCTION     0.13     0.16    29.16     0  03:50        0.16
  J14                  JUNCTION     0.15     0.19    20.19     0  06:18        0.19
  J17                  JUNCTION     0.11     0.15    20.15     0  03:21        0.15
  J7                   JUNCTION     0.10     0.23    39.23     0  03:06        0.23
  J11                  JUNCTION     0.12     0.30    31.30     0  03:05        0.30
  J18                  JUNCTION     0.06     0.16    29.16     0  02:54        0.16
  Out_to_WWTP          OUTFALL      0.15     0.17     6.17     0  02:15        0.17
  T5                   STORAGE      3.52     5.00    32.00     0  02:36        5.00
  T4                   STORAGE      2.54     5.00    32.00     0  03:14        5.00
  T6                   STORAGE      2.86     5.00    36.00     0  02:34        5.00
  T3                   STORAGE      3.50     5.00    27.00     0  03:07        5.00
  T2                   STORAGE      2.50     5.00    26.00     0  02:55        5.00
  T1                   STORAGE      3.83     5.00    15.00     0  02:15        5.00
  
  
  *******************
  Node Inflow Summary
  *******************
  
  -------------------------------------------------------------------------------------------------
                                  Maximum  Maximum                  Lateral       Total        Flow
                                  Lateral    Total  Time of Max      Inflow      Inflow     Balance
                                   Inflow   Inflow   Occurrence      Volume      Volume       Error
  Node                 Type           CMS      CMS  days hr:min    10^6 ltr    10^6 ltr     Percent
  -------------------------------------------------------------------------------------------------
  J1                   JUNCTION     0.571    0.571     0  02:42        2.62        2.62       0.010
  J3                   JUNCTION     0.000    0.309     0  03:21           0        6.29       0.785
  CSO7                 JUNCTION     0.158    0.158     0  02:45       0.913       0.913       0.051
  J5                   JUNCTION     0.218    0.291     0  02:45        1.03        1.77       0.061
  CSO9                 JUNCTION     0.233    0.233     0  02:44         1.1         1.1       0.045
  J8                   JUNCTION     0.998    1.125     0  02:46        5.19        6.12       0.059
  CSO8                 JUNCTION     0.958    0.958     0  02:43        3.99        3.99       0.015
  J10                  JUNCTION     0.688    1.174     0  02:41        2.77        6.01      -0.055
  J13                  JUNCTION     0.821    0.821     0  02:42        3.47        3.47      -0.167
  J15                  JUNCTION     0.000    1.778     0  02:43           0          15       0.795
  J16                  JUNCTION     1.200    1.200     0  02:42        4.92        4.92      -0.032
  CSO10                JUNCTION     0.405    0.405     0  02:43        1.69        1.69       0.022
  J12                  JUNCTION     0.000    1.344     0  02:42           0        9.38       7.465
  J4                   JUNCTION     0.000    0.073     0  02:45           0       0.741       0.453
  J6                   JUNCTION     0.000    0.080     0  03:14           0        1.43       0.389
  J2                   JUNCTION     0.000    0.039     0  02:36           0       0.858       0.617
  J19                  JUNCTION     0.000    0.271     0  02:15           0        6.13       0.207
  J9                   JUNCTION     0.000    0.175     0  02:34           0        3.39       0.552
  J14                  JUNCTION     0.000    0.190     0  03:07           0        4.02       0.249
  J17                  JUNCTION     0.000    0.140     0  02:55           0         2.5       0.458
  J7                   JUNCTION     0.000    0.127     0  03:06           0       0.939       0.330
  J11                  JUNCTION     0.000    0.486     0  02:22           0        3.24       0.199
  J18                  JUNCTION     0.000    0.202     0  02:54           0        1.37       0.027
  Out_to_WWTP          OUTFALL      0.000    0.271     0  02:17           0        6.11       0.000
  T5                   STORAGE      0.000    0.571     0  02:42           0        2.62      17.989
  T4                   STORAGE      0.000    0.291     0  02:45           0        1.77       7.487
  T6                   STORAGE      0.000    1.124     0  02:47           0        6.12       4.827
  T3                   STORAGE      0.000    1.333     0  02:44           0        8.73      18.136
  T2                   STORAGE      0.000    0.821     0  02:42           0        3.48      10.169
  T1                   STORAGE      0.000    1.758     0  02:45           0        14.9       5.894
  
  
  **********************
  Node Surcharge Summary
  **********************
  
  Surcharging occurs when water rises above the top of the highest conduit.
  ---------------------------------------------------------------------
                                               Max. Height   Min. Depth
                                   Hours       Above Crown    Below Rim
  Node                 Type      Surcharged         Meters       Meters
  ---------------------------------------------------------------------
  CSO7                 JUNCTION        1.26          0.945        0.000
  CSO9                 JUNCTION        1.27          1.682        0.000
  CSO8                 JUNCTION        1.22          1.547        0.000
  CSO10                JUNCTION        0.94          0.560        0.000
  J4                   JUNCTION        1.22          0.908        0.792
  
  
  *********************
  Node Flooding Summary
  *********************
  
  Flooding refers to all water that overflows a node, whether it ponds or not.
  --------------------------------------------------------------------------
                                                             Total   Maximum
                                 Maximum   Time of Max       Flood    Ponded
                        Hours       Rate    Occurrence      Volume     Depth
  Node                 Flooded       CMS   days hr:min    10^6 ltr    Meters
  --------------------------------------------------------------------------
  CSO7                    1.07     0.085      0  02:45       0.171     0.000
  CSO9                    0.76     0.106      0  02:44       0.165     0.000
  CSO8                    0.79     0.472      0  02:43       0.741     0.000
  CSO10                   0.81     0.203      0  02:43       0.321     0.000
  T5                      1.47     0.531      0  02:42       0.962     0.000
  T4                      0.39     0.085      0  03:14       0.052     0.000
  T6                      1.37     0.949      0  02:47       2.269     0.000
  T3                      1.72     0.818      0  03:07       0.856     0.000
  T2                      0.43     0.520      0  02:55       0.346     0.000
  T1                      5.58     1.487      0  02:45       7.245     0.000
  
  
  **********************
  Storage Volume Summary
  **********************
  
  --------------------------------------------------------------------------------------------------
                         Average     Avg  Evap Exfil       Maximum     Max    Time of Max    Maximum
                          Volume    Pcnt  Pcnt  Pcnt        Volume    Pcnt     Occurrence    Outflow
  Storage Unit           1000 m3    Full  Loss  Loss       1000 m3    Full    days hr:min        CMS
  --------------------------------------------------------------------------------------------------
  T5                       0.352      70     0     0         0.500     100       0  02:36      0.039
  T4                       0.254      51     0     0         0.500     100       0  03:14      0.080
  T6                       0.343      57     0     0         0.600     100       0  02:34      0.175
  T3                       1.822      70     0     0         2.600     100       0  03:07      0.228
  T2                       0.501      50     0     0         1.000     100       0  02:55      0.140
  T1                       0.537      77     0     0         0.700     100       0  02:15      0.271
  
  
  ***********************
  Outfall Loading Summary
  ***********************
  
  -----------------------------------------------------------
                         Flow       Avg       Max       Total
                         Freq      Flow      Flow      Volume
  Outfall Node           Pcnt       CMS       CMS    10^6 ltr
  -----------------------------------------------------------
  Out_to_WWTP           99.01     0.219     0.271       6.113
  -----------------------------------------------------------
  System                99.01     0.219     0.271       6.113
  
  
  ********************
  Link Flow Summary
  ********************
  
  -----------------------------------------------------------------------------
                                 Maximum  Time of Max   Maximum    Max/    Max/
                                  |Flow|   Occurrence   |Veloc|    Full    Full
  Link                 Type          CMS  days hr:min     m/sec    Flow   Depth
  -----------------------------------------------------------------------------
  C1                   CONDUIT     0.039     0  03:27      0.91    0.01    0.13
  C6                   CONDUIT     0.073     0  02:45      1.29    1.15    0.80
  C2                   CONDUIT     0.080     0  03:37      1.48    0.09    0.25
  C9                   CONDUIT     0.127     0  03:06      1.29    0.43    0.58
  C16                  CONDUIT     0.488     0  02:30      1.80    0.05    0.16
  C3                   CONDUIT     0.190     0  03:09      2.05    0.07    0.18
  C19                  CONDUIT     0.140     0  03:21      1.24    0.05    0.29
  C11                  CONDUIT     0.309     0  03:36      1.85    0.02    0.15
  C20                  CONDUIT     1.199     0  02:42      3.22    0.04    0.18
  C22                  CONDUIT     0.202     0  02:54      1.47    0.09    0.38
  C12                  CONDUIT     0.175     0  03:50      0.76    0.01    0.30
  C17                  CONDUIT     1.169     0  02:42      3.15    0.06    0.31
  C10                  CONDUIT     1.124     0  02:47      1.66    0.12    0.61
  C13                  CONDUIT     1.333     0  02:44      1.53    0.08    0.76
  C18                  CONDUIT     0.821     0  02:42      1.72    0.03    0.56
  C23                  CONDUIT     1.758     0  02:45      1.45    0.19    0.65
  C4                   CONDUIT     0.571     0  02:42      1.98    0.14    0.63
  C7                   CONDUIT     0.291     0  02:45      1.43    0.07    0.59
  C14                  CONDUIT     0.271     0  02:17      2.08    0.02    0.09
  C5                   CONDUIT     0.073     0  02:45      1.41    1.24    1.00
  C8                   CONDUIT     0.127     0  03:06      1.75    1.60    0.86
  C15                  CONDUIT     0.486     0  02:22      3.42    1.55    0.83
  C21                  CONDUIT     0.202     0  02:54      1.82    1.16    0.69
  V4                   ORIFICE     0.080     0  03:14                      1.00
  V5                   ORIFICE     0.039     0  02:36                      1.00
  V1                   ORIFICE     0.271     0  02:15                      1.00
  V6                   ORIFICE     0.175     0  02:34                      1.00
  V3                   ORIFICE     0.190     0  03:07                      1.00
  V2                   ORIFICE     0.140     0  02:55                      1.00
  
  
  ***************************
  Flow Classification Summary
  ***************************
  
  -------------------------------------------------------------------------------------
                      Adjusted    ---------- Fraction of Time in Flow Class ---------- 
                       /Actual         Up    Down  Sub   Sup   Up    Down  Norm  Inlet 
  Conduit               Length    Dry  Dry   Dry   Crit  Crit  Crit  Crit  Ltd   Ctrl  
  -------------------------------------------------------------------------------------
  C1                      1.00   0.00  0.00  0.00  0.92  0.08  0.00  0.00  0.95  0.00
  C6                      1.00   0.00  0.00  0.00  0.18  0.82  0.00  0.00  0.00  0.00
  C2                      1.00   0.00  0.00  0.00  0.01  0.99  0.00  0.00  0.94  0.00
  C9                      1.00   0.00  0.00  0.00  1.00  0.00  0.00  0.00  1.00  0.00
  C16                     1.00   0.00  0.00  0.00  0.54  0.46  0.00  0.00  0.42  0.00
  C3                      1.00   0.00  0.00  0.00  0.05  0.94  0.00  0.00  0.07  0.00
  C19                     1.00   0.00  0.00  0.00  0.61  0.39  0.00  0.00  1.00  0.00
  C11                     1.00   0.00  0.00  0.00  0.31  0.68  0.00  0.00  1.00  0.00
  C20                     1.00   0.00  0.00  0.00  0.63  0.37  0.00  0.00  0.98  0.00
  C22                     1.00   0.00  0.00  0.00  0.84  0.16  0.00  0.00  1.00  0.00
  C12                     1.00   0.00  0.00  0.00  0.94  0.06  0.00  0.00  1.00  0.00
  C17                     1.00   0.00  0.00  0.00  0.63  0.37  0.00  0.00  0.96  0.00
  C10                     1.00   0.00  0.00  0.00  0.94  0.06  0.00  0.00  0.97  0.00
  C13                     1.00   0.00  0.00  0.00  0.83  0.17  0.00  0.00  0.27  0.00
  C18                     1.00   0.00  0.00  0.00  0.82  0.18  0.00  0.00  0.97  0.00
  C23                     1.00   0.00  0.00  0.00  0.90  0.10  0.00  0.00  0.94  0.00
  C4                      1.00   0.00  0.00  0.00  0.96  0.04  0.00  0.00  0.98  0.00
  C7                      1.00   0.00  0.00  0.00  0.91  0.09  0.00  0.00  0.96  0.00
  C14                     1.00   0.00  0.00  0.00  0.00  0.99  0.00  0.00  0.00  0.00
  C5                      1.00   0.00  0.00  0.00  0.90  0.10  0.00  0.00  0.82  0.00
  C8                      1.00   0.00  0.00  0.00  0.20  0.80  0.00  0.00  0.00  0.00
  C15                     1.00   0.00  0.00  0.00  0.00  1.00  0.00  0.00  0.00  0.00
  C21                     1.00   0.00  0.00  0.00  0.00  1.00  0.00  0.00  0.00  0.00
  
  
  *************************
  Conduit Surcharge Summary
  *************************
  
  ----------------------------------------------------------------------------
                                                           Hours        Hours 
                         --------- Hours Full --------   Above Full   Capacity
  Conduit                Both Ends  Upstream  Dnstream   Normal Flow   Limited
  ----------------------------------------------------------------------------
  C6                          0.01      1.22      0.01      1.12         0.01
  C10                         0.01      0.01      5.86      0.01         0.01
  C13                         0.01      0.01      5.54      0.01         0.01
  C18                         0.01      0.01      4.76      0.01         0.01
  C23                         0.01      0.01      6.11      0.01         0.01
  C4                          0.01      0.01      6.15      0.01         0.01
  C7                          0.01      0.01      5.76      0.01         0.01
  C5                          1.26      1.26      1.36      1.32         1.23
  C8                          0.01      1.27      0.01      1.30         0.01
  C15                         0.01      1.22      0.01      1.31         0.01
  C21                         0.01      0.94      0.01      0.95         0.01
  

  Analysis begun on:  Fri Sep  3 19:01:03 2021
  Analysis ended on:  Fri Sep  3 19:01:03 2021
  Total elapsed time: < 1 sec