
  EPA STORM WATER MANAGEMENT MODEL - VERSION 5.1 (Build 5.3.0.dev0)
  --------------------------------------------------------------

  
  *********************************************************
  NOTE: The summary statistics displayed in this report are
  based on results found at every computational time step,  
  not just on results from each reporting time step.
  *********************************************************
  
  ****************
  Analysis Options
  ****************
  Flow Units ............... CMS
  Process Models:
    Rainfall/Runoff ........ YES
    RDII ................... NO
    Snowmelt ............... NO
    Groundwater ............ NO
    Flow Routing ........... YES
    Ponding Allowed ........ YES
    Water Quality .......... NO
  Infiltration Method ...... HORTON
  Flow Routing Method ...... DYNWAVE
  Surcharge Method ......... EXTRAN
  Starting Date ............ 08/28/2015 08:00:00
  Ending Date .............. 08/28/2015 15:50:00
  Antecedent Dry Days ...... 0.0
  Report Time Step ......... 00:01:00
  Wet Time Step ............ 00:01:00
  Dry Time Step ............ 00:01:00
  Routing Time Step ........ 5.00 sec
  Variable Time Step ....... YES
  Maximum Trials ........... 8
  Number of Threads ........ 1
  Head Tolerance ........... 0.001500 m
  
  
  **************************        Volume         Depth
  Runoff Quantity Continuity     hectare-m            mm
  **************************     ---------       -------
  Total Precipitation ......         0.874         4.850
  Evaporation Loss .........         0.000         0.000
  Infiltration Loss ........         0.000         0.000
  Surface Runoff ...........         0.851         4.723
  Final Storage ............         0.023         0.127
  Continuity Error (%) .....        -0.007
  
  
  **************************        Volume        Volume
  Flow Routing Continuity        hectare-m      10^6 ltr
  **************************     ---------     ---------
  Dry Weather Inflow .......         0.396         3.955
  Wet Weather Inflow .......         0.851         8.511
  Groundwater Inflow .......         0.000         0.000
  RDII Inflow ..............         0.000         0.000
  External Inflow ..........         0.000         0.000
  External Outflow .........         0.583         5.831
  Flooding Loss ............         0.137         1.373
  Evaporation Loss .........         0.000         0.000
  Exfiltration Loss ........         0.000         0.000
  Initial Stored Volume ....         0.000         0.000
  Final Stored Volume ......         0.430         4.297
  Continuity Error (%) .....         7.745
  
  
  *************************
  Highest Continuity Errors
  *************************
  Node T5 (23.05%)
  Node T3 (15.75%)
  Node T1 (9.46%)
  Node T6 (6.06%)
  Node T4 (3.98%)
  
  
  ***************************
  Time-Step Critical Elements
  ***************************
  None
  
  
  ********************************
  Highest Flow Instability Indexes
  ********************************
  All links are stable.
  
  
  *************************
  Routing Time Step Summary
  *************************
  Minimum Time Step           :     4.50 sec
  Average Time Step           :     5.00 sec
  Maximum Time Step           :     5.00 sec
  Percent in Steady State     :     0.00
  Average Iterations per Step :     2.00
  Percent Not Converging      :     0.00
  
  
  ***************************
  Subcatchment Runoff Summary
  ***************************
  
  ------------------------------------------------------------------------------------------------------------------------------
                            Total      Total      Total      Total     Imperv       Perv      Total       Total     Peak  Runoff
                           Precip      Runon       Evap      Infil     Runoff     Runoff     Runoff      Runoff   Runoff   Coeff
  Subcatchment                 mm         mm         mm         mm         mm         mm         mm    10^6 ltr      CMS
  ------------------------------------------------------------------------------------------------------------------------------
  SC01                       4.85       0.00       0.00       0.00       4.76       0.00       4.76        1.57     0.31   0.982
  SC02                       4.85       0.00       0.00       0.00       4.76       0.00       4.76        1.08     0.21   0.981
  SC03                       4.85       0.00       0.00       0.00       4.78       0.00       4.78        0.86     0.17   0.986
  SC04                       4.85       0.00       0.00       0.00       4.66       0.00       4.66        0.32     0.06   0.961
  SC05                       4.85       0.00       0.00       0.00       4.76       0.00       4.76        0.74     0.15   0.981
  SC06                       4.85       0.00       0.00       0.00       4.61       0.00       4.61        1.50     0.26   0.951
  SC07                       4.85       0.00       0.00       0.00       4.66       0.00       4.66        0.22     0.04   0.962
  SC08                       4.85       0.00       0.00       0.00       4.74       0.00       4.74        1.33     0.25   0.976
  SC09                       4.85       0.00       0.00       0.00       4.71       0.00       4.71        0.33     0.06   0.971
  SC010                      4.85       0.00       0.00       0.00       4.74       0.00       4.74        0.56     0.11   0.977
  
  
  ******************
  Node Depth Summary
  ******************
  
  ---------------------------------------------------------------------------------
                                 Average  Maximum  Maximum  Time of Max    Reported
                                   Depth    Depth      HGL   Occurrence   Max Depth
  Node                 Type       Meters   Meters   Meters  days hr:min      Meters
  ---------------------------------------------------------------------------------
  J1                   JUNCTION     0.07     0.14    34.14     0  03:01        0.14
  J3                   JUNCTION     0.12     0.15    18.15     0  04:34        0.15
  CSO7                 JUNCTION     0.10     0.19    34.19     0  03:01        0.19
  J5                   JUNCTION     0.06     0.11    32.11     0  03:01        0.11
  CSO9                 JUNCTION     0.10     0.24    40.24     0  03:01        0.24
  J8                   JUNCTION     0.10     0.20    36.20     0  03:01        0.20
  CSO8                 JUNCTION     0.12     0.33    32.33     0  03:01        0.33
  J10                  JUNCTION     0.09     0.20    29.20     0  03:01        0.20
  J13                  JUNCTION     0.06     0.13    29.13     0  03:01        0.13
  J15                  JUNCTION     0.18     0.28    15.28     0  03:02        0.28
  J16                  JUNCTION     0.06     0.14    30.14     0  03:01        0.14
  CSO10                JUNCTION     0.11     0.28    30.28     0  03:01        0.28
  J12                  JUNCTION     0.14     0.25    26.25     0  03:03        0.25
  J4                   JUNCTION     0.12     0.22    33.22     0  03:02        0.22
  J6                   JUNCTION     0.07     0.09    25.09     0  03:40        0.09
  J2                   JUNCTION     0.06     0.07    25.07     0  04:18        0.07
  J19                  JUNCTION     0.14     0.17     8.17     0  02:59        0.17
  J9                   JUNCTION     0.12     0.15    29.15     0  03:44        0.15
  J14                  JUNCTION     0.13     0.17    20.17     0  06:05        0.17
  J17                  JUNCTION     0.09     0.11    20.11     0  03:25        0.11
  J7                   JUNCTION     0.08     0.16    39.16     0  03:02        0.16
  J11                  JUNCTION     0.09     0.22    31.22     0  03:01        0.22
  J18                  JUNCTION     0.05     0.12    29.12     0  03:01        0.12
  Out_to_WWTP          OUTFALL      0.14     0.17     6.17     0  02:58        0.17
  T5                   STORAGE      2.40     3.59    30.59     0  04:16        3.59
  T4                   STORAGE      0.90     1.82    28.82     0  03:39        1.82
  T6                   STORAGE      1.77     3.58    34.58     0  03:41        3.58
  T3                   STORAGE      2.06     3.19    25.19     0  05:50        3.19
  T2                   STORAGE      0.82     1.69    22.69     0  03:23        1.69
  T1                   STORAGE      3.57     5.00    15.00     0  02:57        5.00
  
  
  *******************
  Node Inflow Summary
  *******************
  
  -------------------------------------------------------------------------------------------------
                                  Maximum  Maximum                  Lateral       Total        Flow
                                  Lateral    Total  Time of Max      Inflow      Inflow     Balance
                                   Inflow   Inflow   Occurrence      Volume      Volume       Error
  Node                 Type           CMS      CMS  days hr:min    10^6 ltr    10^6 ltr     Percent
  -------------------------------------------------------------------------------------------------
  J1                   JUNCTION     0.168    0.168     0  03:01         1.3         1.3       0.044
  J3                   JUNCTION     0.000    0.227     0  04:31           0        4.62       0.869
  CSO7                 JUNCTION     0.052    0.052     0  03:01       0.512       0.512       0.089
  J5                   JUNCTION     0.063    0.112     0  03:01       0.449       0.957       0.135
  CSO9                 JUNCTION     0.069    0.069     0  03:01       0.521       0.521       0.084
  J8                   JUNCTION     0.301    0.367     0  03:01        2.44        2.96       0.143
  CSO8                 JUNCTION     0.264    0.264     0  03:01        1.62        1.62       0.033
  J10                  JUNCTION     0.190    0.447     0  03:01        1.25        2.86       0.183
  J13                  JUNCTION     0.232    0.232     0  03:01        1.55        1.55      -0.242
  J15                  JUNCTION     0.000    0.704     0  03:01           0        8.83       1.057
  J16                  JUNCTION     0.333    0.333     0  03:01        2.13        2.13       0.007
  CSO10                JUNCTION     0.113    0.113     0  03:01       0.696       0.696       0.061
  J12                  JUNCTION     0.000    0.568     0  03:01           0        5.49       0.501
  J4                   JUNCTION     0.000    0.052     0  03:01           0       0.512       0.736
  J6                   JUNCTION     0.000    0.048     0  03:39           0       0.867       0.416
  J2                   JUNCTION     0.000    0.033     0  04:16           0       0.708       0.666
  J19                  JUNCTION     0.000    0.271     0  02:58           0        5.84       0.217
  J9                   JUNCTION     0.000    0.148     0  03:41           0        2.66       0.690
  J14                  JUNCTION     0.000    0.151     0  05:50           0        3.07       0.276
  J17                  JUNCTION     0.000    0.081     0  03:23           0        1.43       0.455
  J7                   JUNCTION     0.000    0.068     0  03:01           0       0.521       0.616
  J11                  JUNCTION     0.000    0.264     0  03:01           0        1.62       0.367
  J18                  JUNCTION     0.000    0.112     0  03:01           0       0.695       0.124
  Out_to_WWTP          OUTFALL      0.000    0.271     0  02:59           0        5.83       0.000
  T5                   STORAGE      0.000    0.167     0  03:01           0         1.3      29.959
  T4                   STORAGE      0.000    0.111     0  03:01           0       0.956       4.144
  T6                   STORAGE      0.000    0.361     0  03:01           0        2.96       6.454
  T3                   STORAGE      0.000    0.559     0  03:03           0        5.47      18.691
  T2                   STORAGE      0.000    0.229     0  03:01           0        1.55       3.232
  T1                   STORAGE      0.000    0.688     0  03:02           0        8.74      10.449
  
  
  **********************
  Node Surcharge Summary
  **********************
  
  No nodes were surcharged.
  
  
  *********************
  Node Flooding Summary
  *********************
  
  Flooding refers to all water that overflows a node, whether it ponds or not.
  --------------------------------------------------------------------------
                                                             Total   Maximum
                                 Maximum   Time of Max       Flood    Ponded
                        Hours       Rate    Occurrence      Volume     Depth
  Node                 Flooded       CMS   days hr:min    10^6 ltr    Meters
  --------------------------------------------------------------------------
  T1                      4.46     0.417      0  03:02       1.373     0.000
  
  
  **********************
  Storage Volume Summary
  **********************
  
  --------------------------------------------------------------------------------------------------
                         Average     Avg  Evap Exfil       Maximum     Max    Time of Max    Maximum
                          Volume    Pcnt  Pcnt  Pcnt        Volume    Pcnt     Occurrence    Outflow
  Storage Unit           1000 m3    Full  Loss  Loss       1000 m3    Full    days hr:min        CMS
  --------------------------------------------------------------------------------------------------
  T5                       0.240      48     0     0         0.359      72       0  04:16      0.033
  T4                       0.090      18     0     0         0.182      36       0  03:39      0.048
  T6                       0.213      35     0     0         0.429      72       0  03:41      0.148
  T3                       1.069      41     0     0         1.659      64       0  05:50      0.151
  T2                       0.163      16     0     0         0.339      34       0  03:23      0.081
  T1                       0.500      71     0     0         0.700     100       0  02:57      0.271
  
  
  ***********************
  Outfall Loading Summary
  ***********************
  
  -----------------------------------------------------------
                         Flow       Avg       Max       Total
                         Freq      Flow      Flow      Volume
  Outfall Node           Pcnt       CMS       CMS    10^6 ltr
  -----------------------------------------------------------
  Out_to_WWTP           99.01     0.209     0.271       5.831
  -----------------------------------------------------------
  System                99.01     0.209     0.271       5.831
  
  
  ********************
  Link Flow Summary
  ********************
  
  -----------------------------------------------------------------------------
                                 Maximum  Time of Max   Maximum    Max/    Max/
                                  |Flow|   Occurrence   |Veloc|    Full    Full
  Link                 Type          CMS  days hr:min     m/sec    Flow   Depth
  -----------------------------------------------------------------------------
  C1                   CONDUIT     0.033     0  04:18      0.91    0.01    0.11
  C6                   CONDUIT     0.050     0  03:03      1.24    0.79    0.55
  C2                   CONDUIT     0.048     0  03:40      1.18    0.05    0.20
  C9                   CONDUIT     0.067     0  03:02      1.05    0.23    0.36
  C16                  CONDUIT     0.259     0  03:02      1.46    0.02    0.11
  C3                   CONDUIT     0.151     0  05:51      1.92    0.06    0.16
  C19                  CONDUIT     0.081     0  03:25      0.96    0.03    0.20
  C11                  CONDUIT     0.227     0  04:34      1.75    0.01    0.10
  C20                  CONDUIT     0.330     0  03:01      1.86    0.01    0.11
  C22                  CONDUIT     0.111     0  03:01      1.12    0.05    0.25
  C12                  CONDUIT     0.148     0  03:44      1.34    0.01    0.10
  C17                  CONDUIT     0.441     0  03:01      2.25    0.02    0.11
  C10                  CONDUIT     0.361     0  03:01      1.66    0.04    0.57
  C13                  CONDUIT     0.559     0  03:03      1.53    0.03    0.56
  C18                  CONDUIT     0.229     0  03:01      1.72    0.01    0.44
  C23                  CONDUIT     0.688     0  03:02      1.26    0.08    0.59
  C4                   CONDUIT     0.167     0  03:01      1.98    0.04    0.57
  C7                   CONDUIT     0.111     0  03:01      1.43    0.03    0.56
  C14                  CONDUIT     0.271     0  02:59      2.08    0.02    0.09
  C5                   CONDUIT     0.052     0  03:01      1.22    0.88    0.79
  C8                   CONDUIT     0.068     0  03:01      1.30    0.86    0.63
  C15                  CONDUIT     0.264     0  03:01      2.58    0.84    0.61
  C21                  CONDUIT     0.112     0  03:01      1.66    0.64    0.46
  V4                   ORIFICE     0.048     0  03:39                      1.00
  V5                   ORIFICE     0.033     0  04:16                      1.00
  V1                   ORIFICE     0.271     0  02:58                      1.00
  V6                   ORIFICE     0.148     0  03:41                      1.00
  V3                   ORIFICE     0.151     0  05:50                      1.00
  V2                   ORIFICE     0.081     0  03:23                      1.00
  
  
  ***************************
  Flow Classification Summary
  ***************************
  
  -------------------------------------------------------------------------------------
                      Adjusted    ---------- Fraction of Time in Flow Class ---------- 
                       /Actual         Up    Down  Sub   Sup   Up    Down  Norm  Inlet 
  Conduit               Length    Dry  Dry   Dry   Crit  Crit  Crit  Crit  Ltd   Ctrl  
  -------------------------------------------------------------------------------------
  C1                      1.00   0.00  0.00  0.00  0.92  0.08  0.00  0.00  0.95  0.00
  C6                      1.00   0.00  0.00  0.00  0.01  0.99  0.00  0.00  0.00  0.00
  C2                      1.00   0.00  0.00  0.00  0.13  0.86  0.00  0.00  0.94  0.00
  C9                      1.00   0.00  0.00  0.00  1.00  0.00  0.00  0.00  1.00  0.00
  C16                     1.00   0.00  0.00  0.00  0.59  0.41  0.00  0.00  0.48  0.00
  C3                      1.00   0.00  0.00  0.00  0.05  0.94  0.00  0.00  0.07  0.00
  C19                     1.00   0.00  0.00  0.00  1.00  0.00  0.00  0.00  1.00  0.00
  C11                     1.00   0.00  0.00  0.00  0.28  0.71  0.00  0.00  1.00  0.00
  C20                     1.00   0.00  0.00  0.00  0.63  0.37  0.00  0.00  0.98  0.00
  C22                     1.00   0.00  0.00  0.00  0.97  0.03  0.00  0.00  1.00  0.00
  C12                     1.00   0.00  0.00  0.00  0.36  0.64  0.00  0.00  0.61  0.00
  C17                     1.00   0.00  0.00  0.00  0.50  0.50  0.00  0.00  0.97  0.00
  C10                     1.00   0.00  0.00  0.00  0.94  0.06  0.00  0.00  0.97  0.00
  C13                     1.00   0.00  0.00  0.00  0.87  0.13  0.00  0.00  0.91  0.00
  C18                     1.00   0.00  0.00  0.00  0.81  0.19  0.00  0.00  0.97  0.00
  C23                     1.00   0.00  0.00  0.00  0.90  0.10  0.00  0.00  0.94  0.00
  C4                      1.00   0.00  0.00  0.00  0.96  0.04  0.00  0.00  0.98  0.00
  C7                      1.00   0.00  0.00  0.00  0.91  0.09  0.00  0.00  0.96  0.00
  C14                     1.00   0.00  0.00  0.00  0.00  0.99  0.00  0.00  0.00  0.00
  C5                      1.00   0.00  0.00  0.00  0.89  0.11  0.00  0.00  0.98  0.00
  C8                      1.00   0.00  0.00  0.00  0.00  1.00  0.00  0.00  0.00  0.00
  C15                     1.00   0.00  0.00  0.00  0.00  1.00  0.00  0.00  0.00  0.00
  C21                     1.00   0.00  0.00  0.00  0.00  1.00  0.00  0.00  0.00  0.00
  
  
  *************************
  Conduit Surcharge Summary
  *************************
  
  ----------------------------------------------------------------------------
                                                           Hours        Hours 
                         --------- Hours Full --------   Above Full   Capacity
  Conduit                Both Ends  Upstream  Dnstream   Normal Flow   Limited
  ----------------------------------------------------------------------------
  C10                         0.01      0.01      4.36      0.01         0.01
  C13                         0.01      0.01      4.83      0.01         0.01
  C23                         0.01      0.01      5.80      0.01         0.01
  C4                          0.01      0.01      5.81      0.01         0.01
  C7                          0.01      0.01      3.49      0.01         0.01
  

  Analysis begun on:  Fri Sep  3 19:01:42 2021
  Analysis ended on:  Fri Sep  3 19:01:42 2021
  Total elapsed time: < 1 sec