
  EPA STORM WATER MANAGEMENT MODEL - VERSION 5.1 (Build 5.3.0.dev0)
  --------------------------------------------------------------

  
  *********************************************************
  NOTE: The summary statistics displayed in this report are
  based on results found at every computational time step,  
  not just on results from each reporting time step.
  *********************************************************
  
  ****************
  Analysis Options
  ****************
  Flow Units ............... CMS
  Process Models:
    Rainfall/Runoff ........ YES
    RDII ................... NO
    Snowmelt ............... NO
    Groundwater ............ NO
    Flow Routing ........... YES
    Ponding Allowed ........ YES
    Water Quality .......... NO
  Infiltration Method ...... HORTON
  Flow Routing Method ...... DYNWAVE
  Surcharge Method ......... EXTRAN
  Starting Date ............ 08/28/2015 08:00:00
  Ending Date .............. 08/28/2015 15:50:00
  Antecedent Dry Days ...... 0.0
  Report Time Step ......... 00:01:00
  Wet Time Step ............ 00:01:00
  Dry Time Step ............ 00:01:00
  Routing Time Step ........ 5.00 sec
  Variable Time Step ....... YES
  Maximum Trials ........... 8
  Number of Threads ........ 1
  Head Tolerance ........... 0.001500 m
  
  
  **************************        Volume         Depth
  Runoff Quantity Continuity     hectare-m            mm
  **************************     ---------       -------
  Total Precipitation ......         1.715         9.515
  Evaporation Loss .........         0.000         0.000
  Infiltration Loss ........         0.000         0.000
  Surface Runoff ...........         1.691         9.382
  Final Storage ............         0.024         0.134
  Continuity Error (%) .....        -0.009
  
  
  **************************        Volume        Volume
  Flow Routing Continuity        hectare-m      10^6 ltr
  **************************     ---------     ---------
  Dry Weather Inflow .......         0.396         3.955
  Wet Weather Inflow .......         1.691        16.906
  Groundwater Inflow .......         0.000         0.000
  RDII Inflow ..............         0.000         0.000
  External Inflow ..........         0.000         0.000
  External Outflow .........         0.601         6.015
  Flooding Loss ............         0.688         6.879
  Evaporation Loss .........         0.000         0.000
  Exfiltration Loss ........         0.000         0.000
  Initial Stored Volume ....         0.000         0.000
  Final Stored Volume ......         0.645         6.445
  Continuity Error (%) .....         7.297
  
  
  *************************
  Highest Continuity Errors
  *************************
  Node T5 (19.77%)
  Node T3 (16.83%)
  Node T2 (8.62%)
  Node T1 (6.52%)
  Node T4 (6.42%)
  
  
  ***************************
  Time-Step Critical Elements
  ***************************
  None
  
  
  ********************************
  Highest Flow Instability Indexes
  ********************************
  Link C13 (2)
  
  
  *************************
  Routing Time Step Summary
  *************************
  Minimum Time Step           :     4.50 sec
  Average Time Step           :     5.00 sec
  Maximum Time Step           :     5.00 sec
  Percent in Steady State     :     0.00
  Average Iterations per Step :     2.18
  Percent Not Converging      :     0.64
  
  
  ***************************
  Subcatchment Runoff Summary
  ***************************
  
  ------------------------------------------------------------------------------------------------------------------------------
                            Total      Total      Total      Total     Imperv       Perv      Total       Total     Peak  Runoff
                           Precip      Runon       Evap      Infil     Runoff     Runoff     Runoff      Runoff   Runoff   Coeff
  Subcatchment                 mm         mm         mm         mm         mm         mm         mm    10^6 ltr      CMS
  ------------------------------------------------------------------------------------------------------------------------------
  SC01                       9.51       0.00       0.00       0.00       9.43       0.00       9.43        3.11     0.97   0.991
  SC02                       9.51       0.00       0.00       0.00       9.42       0.00       9.42        2.14     0.66   0.990
  SC03                       9.51       0.00       0.00       0.00       9.45       0.00       9.45        1.70     0.56   0.993
  SC04                       9.51       0.00       0.00       0.00       9.32       0.00       9.32        0.64     0.17   0.979
  SC05                       9.51       0.00       0.00       0.00       9.42       0.00       9.42        1.47     0.45   0.990
  SC06                       9.51       0.00       0.00       0.00       9.26       0.00       9.26        3.01     0.75   0.973
  SC07                       9.51       0.00       0.00       0.00       9.32       0.00       9.32        0.44     0.12   0.979
  SC08                       9.51       0.00       0.00       0.00       9.40       0.00       9.40        2.63     0.77   0.988
  SC09                       9.51       0.00       0.00       0.00       9.37       0.00       9.37        0.65     0.18   0.985
  SC010                      9.51       0.00       0.00       0.00       9.40       0.00       9.40        1.10     0.32   0.988
  
  
  ******************
  Node Depth Summary
  ******************
  
  ---------------------------------------------------------------------------------
                                 Average  Maximum  Maximum  Time of Max    Reported
                                   Depth    Depth      HGL   Occurrence   Max Depth
  Node                 Type       Meters   Meters   Meters  days hr:min      Meters
  ---------------------------------------------------------------------------------
  J1                   JUNCTION     0.08     0.23    34.23     0  03:01        0.23
  J3                   JUNCTION     0.13     0.17    18.17     0  03:58        0.17
  CSO7                 JUNCTION     0.20     1.20    35.20     0  02:34        1.20
  J5                   JUNCTION     0.07     0.17    32.17     0  03:01        0.16
  CSO9                 JUNCTION     0.24     2.00    42.00     0  02:48        2.00
  J8                   JUNCTION     0.12     0.31    36.31     0  03:01        0.31
  CSO8                 JUNCTION     0.26     2.00    34.00     0  02:45        2.00
  J10                  JUNCTION     0.11     0.31    29.31     0  03:01        0.31
  J13                  JUNCTION     0.07     0.22    29.22     0  03:01        0.22
  J15                  JUNCTION     0.21     0.41    15.41     0  03:02        0.41
  J16                  JUNCTION     0.07     0.24    30.24     0  03:01        0.24
  CSO10                JUNCTION     0.17     1.00    31.00     0  02:45        1.00
  J12                  JUNCTION     0.54     0.88    26.88     0  05:28        0.88
  J4                   JUNCTION     0.18     1.15    34.15     0  02:34        0.76
  J6                   JUNCTION     0.09     0.11    25.11     0  03:42        0.11
  J2                   JUNCTION     0.07     0.08    25.08     0  03:47        0.08
  J19                  JUNCTION     0.14     0.17     8.17     0  02:31        0.17
  J9                   JUNCTION     0.13     0.16    29.16     0  03:54        0.16
  J14                  JUNCTION     0.15     0.18    20.18     0  06:17        0.18
  J17                  JUNCTION     0.11     0.14    20.14     0  03:26        0.14
  J7                   JUNCTION     0.09     0.23    39.23     0  03:06        0.23
  J11                  JUNCTION     0.11     0.30    31.30     0  02:49        0.30
  J18                  JUNCTION     0.06     0.16    29.16     0  03:06        0.16
  Out_to_WWTP          OUTFALL      0.14     0.17     6.17     0  02:30        0.17
  T5                   STORAGE      3.39     5.00    32.00     0  02:56        5.00
  T4                   STORAGE      1.90     3.86    30.86     0  03:41        3.86
  T6                   STORAGE      2.71     5.00    36.00     0  02:54        5.00
  T3                   STORAGE      3.25     4.88    26.88     0  05:24        4.88
  T2                   STORAGE      1.87     3.93    24.93     0  03:25        3.93
  T1                   STORAGE      3.74     5.00    15.00     0  02:29        5.00
  
  
  *******************
  Node Inflow Summary
  *******************
  
  -------------------------------------------------------------------------------------------------
                                  Maximum  Maximum                  Lateral       Total        Flow
                                  Lateral    Total  Time of Max      Inflow      Inflow     Balance
                                   Inflow   Inflow   Occurrence      Volume      Volume       Error
  Node                 Type           CMS      CMS  days hr:min    10^6 ltr    10^6 ltr     Percent
  -------------------------------------------------------------------------------------------------
  J1                   JUNCTION     0.474    0.474     0  03:01        2.03        2.03       0.018
  J3                   JUNCTION     0.000    0.294     0  03:57           0         5.9       0.813
  CSO7                 JUNCTION     0.128    0.128     0  03:01       0.733       0.733       0.062
  J5                   JUNCTION     0.174    0.246     0  03:01        0.77        1.45       0.081
  CSO9                 JUNCTION     0.189    0.189     0  03:01       0.843       0.843       0.059
  J8                   JUNCTION     0.792    0.919     0  03:01        3.96        4.77       0.083
  CSO8                 JUNCTION     0.776    0.776     0  03:01        2.92        2.92       0.018
  J10                  JUNCTION     0.578    1.064     0  03:01        2.09        4.85       0.007
  J13                  JUNCTION     0.678    0.678     0  03:01        2.61        2.61      -0.196
  J15                  JUNCTION     0.000    1.543     0  03:01           0        12.8       0.894
  J16                  JUNCTION     0.992    0.992     0  03:01        3.67        3.67      -0.030
  CSO10                JUNCTION     0.330    0.330     0  03:01        1.24        1.24       0.030
  J12                  JUNCTION     0.000    1.213     0  03:01           0        8.29       6.763
  J4                   JUNCTION     0.000    0.072     0  03:01           0       0.683       0.499
  J6                   JUNCTION     0.000    0.070     0  03:41           0        1.24       0.399
  J2                   JUNCTION     0.000    0.039     0  02:57           0       0.838       0.634
  J19                  JUNCTION     0.000    0.271     0  02:30           0        6.03       0.210
  J9                   JUNCTION     0.000    0.175     0  02:54           0        3.28       0.570
  J14                  JUNCTION     0.000    0.187     0  05:24           0        3.84       0.259
  J17                  JUNCTION     0.000    0.124     0  03:25           0        2.16       0.471
  J7                   JUNCTION     0.000    0.127     0  03:06           0       0.813       0.385
  J11                  JUNCTION     0.000    0.486     0  02:49           0        2.77       0.229
  J18                  JUNCTION     0.000    0.202     0  03:06           0        1.18       0.042
  Out_to_WWTP          OUTFALL      0.000    0.271     0  02:31           0        6.01       0.000
  T5                   STORAGE      0.000    0.466     0  03:01           0        2.03      24.639
  T4                   STORAGE      0.000    0.242     0  03:01           0        1.45       6.856
  T6                   STORAGE      0.000    0.899     0  03:01           0        4.76       6.224
  T3                   STORAGE      0.000    1.184     0  03:02           0        7.76      20.239
  T2                   STORAGE      0.000    0.666     0  03:01           0        2.62       9.429
  T1                   STORAGE      0.000    1.472     0  03:02           0        12.7       6.975
  
  
  **********************
  Node Surcharge Summary
  **********************
  
  Surcharging occurs when water rises above the top of the highest conduit.
  ---------------------------------------------------------------------
                                               Max. Height   Min. Depth
                                   Hours       Above Crown    Below Rim
  Node                 Type      Surcharged         Meters       Meters
  ---------------------------------------------------------------------
  CSO7                 JUNCTION        0.84          0.945        0.000
  CSO9                 JUNCTION        0.87          1.682        0.000
  CSO8                 JUNCTION        0.79          1.547        0.000
  CSO10                JUNCTION        0.49          0.560        0.000
  J4                   JUNCTION        0.80          0.846        0.854
  
  
  *********************
  Node Flooding Summary
  *********************
  
  Flooding refers to all water that overflows a node, whether it ponds or not.
  --------------------------------------------------------------------------
                                                             Total   Maximum
                                 Maximum   Time of Max       Flood    Ponded
                        Hours       Rate    Occurrence      Volume     Depth
  Node                 Flooded       CMS   days hr:min    10^6 ltr    Meters
  --------------------------------------------------------------------------
  CSO7                    0.64     0.057      0  03:01       0.049     0.000
  CSO9                    0.31     0.062      0  03:01       0.029     0.000
  CSO8                    0.35     0.290      0  03:01       0.150     0.000
  CSO10                   0.36     0.127      0  03:01       0.068     0.000
  T5                      1.16     0.427      0  03:01       0.389     0.000
  T6                      1.01     0.724      0  03:01       1.020     0.000
  T1                      5.34     1.201      0  03:02       5.174     0.000
  
  
  **********************
  Storage Volume Summary
  **********************
  
  --------------------------------------------------------------------------------------------------
                         Average     Avg  Evap Exfil       Maximum     Max    Time of Max    Maximum
                          Volume    Pcnt  Pcnt  Pcnt        Volume    Pcnt     Occurrence    Outflow
  Storage Unit           1000 m3    Full  Loss  Loss       1000 m3    Full    days hr:min        CMS
  --------------------------------------------------------------------------------------------------
  T5                       0.339      68     0     0         0.500     100       0  02:56      0.039
  T4                       0.190      38     0     0         0.386      77       0  03:41      0.070
  T6                       0.325      54     0     0         0.600     100       0  02:54      0.175
  T3                       1.688      65     0     0         2.538      98       0  05:24      0.372
  T2                       0.374      37     0     0         0.786      79       0  03:25      0.124
  T1                       0.524      75     0     0         0.700     100       0  02:29      0.271
  
  
  ***********************
  Outfall Loading Summary
  ***********************
  
  -----------------------------------------------------------
                         Flow       Avg       Max       Total
                         Freq      Flow      Flow      Volume
  Outfall Node           Pcnt       CMS       CMS    10^6 ltr
  -----------------------------------------------------------
  Out_to_WWTP           99.01     0.215     0.271       6.015
  -----------------------------------------------------------
  System                99.01     0.215     0.271       6.015
  
  
  ********************
  Link Flow Summary
  ********************
  
  -----------------------------------------------------------------------------
                                 Maximum  Time of Max   Maximum    Max/    Max/
                                  |Flow|   Occurrence   |Veloc|    Full    Full
  Link                 Type          CMS  days hr:min     m/sec    Flow   Depth
  -----------------------------------------------------------------------------
  C1                   CONDUIT     0.039     0  03:47      0.91    0.01    0.12
  C6                   CONDUIT     0.072     0  03:01      1.29    1.14    0.78
  C2                   CONDUIT     0.070     0  03:42      1.38    0.08    0.24
  C9                   CONDUIT     0.127     0  03:06      1.28    0.43    0.54
  C16                  CONDUIT     0.488     0  02:56      1.78    0.05    0.15
  C3                   CONDUIT     0.187     0  05:25      2.05    0.07    0.18
  C19                  CONDUIT     0.124     0  03:26      1.16    0.04    0.27
  C11                  CONDUIT     0.294     0  03:58      1.85    0.01    0.14
  C20                  CONDUIT     0.974     0  03:01      2.97    0.03    0.16
  C22                  CONDUIT     0.202     0  03:06      1.45    0.09    0.36
  C12                  CONDUIT     0.175     0  03:54      0.81    0.01    0.26
  C17                  CONDUIT     1.038     0  03:01      3.04    0.05    0.23
  C10                  CONDUIT     0.899     0  03:01      1.66    0.09    0.60
  C13                  CONDUIT     1.184     0  03:02      1.53    0.07    0.72
  C18                  CONDUIT     0.666     0  03:01      1.72    0.02    0.55
  C23                  CONDUIT     1.472     0  03:02      1.26    0.16    0.64
  C4                   CONDUIT     0.466     0  03:01      1.98    0.11    0.61
  C7                   CONDUIT     0.242     0  03:01      1.43    0.06    0.58
  C14                  CONDUIT     0.271     0  02:31      2.08    0.02    0.09
  C5                   CONDUIT     0.072     0  03:01      1.40    1.23    1.00
  C8                   CONDUIT     0.127     0  03:06      1.75    1.60    0.86
  C15                  CONDUIT     0.486     0  02:49      3.42    1.55    0.83
  C21                  CONDUIT     0.202     0  03:06      1.82    1.16    0.69
  V4                   ORIFICE     0.070     0  03:41                      1.00
  V5                   ORIFICE     0.039     0  02:57                      1.00
  V1                   ORIFICE     0.271     0  02:30                      1.00
  V6                   ORIFICE     0.175     0  02:54                      1.00
  V3                   ORIFICE     0.187     0  05:24                      1.00
  V2                   ORIFICE     0.124     0  03:25                      1.00
  
  
  ***************************
  Flow Classification Summary
  ***************************
  
  -------------------------------------------------------------------------------------
                      Adjusted    ---------- Fraction of Time in Flow Class ---------- 
                       /Actual         Up    Down  Sub   Sup   Up    Down  Norm  Inlet 
  Conduit               Length    Dry  Dry   Dry   Crit  Crit  Crit  Crit  Ltd   Ctrl  
  -------------------------------------------------------------------------------------
  C1                      1.00   0.00  0.00  0.00  0.92  0.08  0.00  0.00  0.95  0.00
  C6                      1.00   0.00  0.00  0.00  0.13  0.87  0.00  0.00  0.00  0.00
  C2                      1.00   0.00  0.00  0.00  0.01  0.99  0.00  0.00  0.94  0.00
  C9                      1.00   0.00  0.00  0.00  1.00  0.00  0.00  0.00  1.00  0.00
  C16                     1.00   0.00  0.00  0.00  0.54  0.46  0.00  0.00  0.37  0.00
  C3                      1.00   0.00  0.00  0.00  0.05  0.94  0.00  0.00  0.07  0.00
  C19                     1.00   0.00  0.00  0.00  0.78  0.22  0.00  0.00  1.00  0.00
  C11                     1.00   0.00  0.00  0.00  0.31  0.68  0.00  0.00  1.00  0.00
  C20                     1.00   0.00  0.00  0.00  0.62  0.38  0.00  0.00  0.98  0.00
  C22                     1.00   0.00  0.00  0.00  0.85  0.15  0.00  0.00  1.00  0.00
  C12                     1.00   0.00  0.00  0.00  0.93  0.07  0.00  0.00  1.00  0.00
  C17                     1.00   0.00  0.00  0.00  0.59  0.41  0.00  0.00  0.97  0.00
  C10                     1.00   0.00  0.00  0.00  0.94  0.06  0.00  0.00  0.97  0.00
  C13                     1.00   0.00  0.00  0.00  0.84  0.16  0.00  0.00  0.31  0.00
  C18                     1.00   0.00  0.00  0.00  0.82  0.18  0.00  0.00  0.97  0.00
  C23                     1.00   0.00  0.00  0.00  0.90  0.10  0.00  0.00  0.94  0.00
  C4                      1.00   0.00  0.00  0.00  0.96  0.04  0.00  0.00  0.98  0.00
  C7                      1.00   0.00  0.00  0.00  0.91  0.09  0.00  0.00  0.96  0.00
  C14                     1.00   0.00  0.00  0.00  0.00  0.99  0.00  0.00  0.00  0.00
  C5                      1.00   0.00  0.00  0.00  0.90  0.10  0.00  0.00  0.87  0.00
  C8                      1.00   0.00  0.00  0.00  0.16  0.84  0.00  0.00  0.00  0.00
  C15                     1.00   0.00  0.00  0.00  0.00  1.00  0.00  0.00  0.00  0.00
  C21                     1.00   0.00  0.00  0.00  0.00  1.00  0.00  0.00  0.00  0.00
  
  
  *************************
  Conduit Surcharge Summary
  *************************
  
  ----------------------------------------------------------------------------
                                                           Hours        Hours 
                         --------- Hours Full --------   Above Full   Capacity
  Conduit                Both Ends  Upstream  Dnstream   Normal Flow   Limited
  ----------------------------------------------------------------------------
  C6                          0.01      0.80      0.01      0.70         0.01
  C10                         0.01      0.01      5.68      0.01         0.01
  C13                         0.01      0.01      5.30      0.01         0.01
  C18                         0.01      0.01      3.57      0.01         0.01
  C23                         0.01      0.01      6.00      0.01         0.01
  C4                          0.01      0.01      6.03      0.01         0.01
  C7                          0.01      0.01      5.56      0.01         0.01
  C5                          0.84      0.84      0.97      0.93         0.81
  C8                          0.01      0.87      0.01      0.90         0.01
  C15                         0.01      0.79      0.01      0.90         0.01
  C21                         0.01      0.49      0.01      0.50         0.01
  

  Analysis begun on:  Fri Sep  3 19:02:30 2021
  Analysis ended on:  Fri Sep  3 19:02:30 2021
  Total elapsed time: < 1 sec