
  EPA STORM WATER MANAGEMENT MODEL - VERSION 5.1 (Build 5.3.0.dev0)
  --------------------------------------------------------------

  WARNING 04: minimum elevation drop used for Conduit WS02004404WS02004405
  WARNING 03: negative offset ignored for Link YS02001904YS02001907
  
  *********************************************************
  NOTE: The summary statistics displayed in this report are
  based on results found at every computational time step,  
  not just on results from each reporting time step.
  *********************************************************
  
  ****************
  Analysis Options
  ****************
  Flow Units ............... LPS
  Process Models:
    Rainfall/Runoff ........ YES
    RDII ................... NO
    Snowmelt ............... NO
    Groundwater ............ NO
    Flow Routing ........... YES
    Ponding Allowed ........ NO
    Water Quality .......... YES
  Infiltration Method ...... HORTON
  Flow Routing Method ...... DYNWAVE
  Surcharge Method ......... EXTRAN
  Starting Date ............ 08/28/2015 08:00:00
  Ending Date .............. 08/28/2015 15:50:00
  Antecedent Dry Days ...... 8.0
  Report Time Step ......... 00:01:00
  Wet Time Step ............ 00:01:00
  Dry Time Step ............ 00:01:00
  Routing Time Step ........ 5.00 sec
  Variable Time Step ....... YES
  Maximum Trials ........... 8
  Number of Threads ........ 4
  Head Tolerance ........... 0.001500 m
  
  
  **************************        Volume         Depth
  Runoff Quantity Continuity     hectare-m            mm
  **************************     ---------       -------
  Total Precipitation ......         5.556        12.164
  Evaporation Loss .........         0.000         0.000
  Infiltration Loss ........         1.002         2.194
  Surface Runoff ...........         3.688         8.075
  Final Storage ............         0.866         1.897
  Continuity Error (%) .....        -0.019
  
  
  **************************           COD            SS            TN            TP         NH4-N
  Runoff Quality Continuity             kg            kg            kg            kg            kg
  **************************    ----------    ----------    ----------    ----------    ----------
  Initial Buildup ..........     41378.656     70582.865      1804.177       168.684      1032.807
  Surface Buildup ..........        19.275        34.271         2.335         0.213         1.362
  Wet Deposition ...........         0.000         0.000         0.000         0.000         0.000
  Sweeping Removal .........         0.000         0.000         0.000         0.000         0.000
  Infiltration Loss ........        84.023       157.502         1.599         0.111         0.761
  BMP Removal ..............         0.000         0.000         0.000         0.000         0.000
  Surface Runoff ...........      3122.074      5752.154        60.620         4.098        28.771
  Remaining Buildup ........     38190.779     64705.500      1744.271       164.686      1004.628
  Continuity Error (%) .....         0.003         0.003         0.001         0.001         0.001
  
  
  **************************        Volume        Volume
  Flow Routing Continuity        hectare-m      10^6 ltr
  **************************     ---------     ---------
  Dry Weather Inflow .......         0.616         6.165
  Wet Weather Inflow .......         3.687        36.870
  Groundwater Inflow .......         0.000         0.000
  RDII Inflow ..............         0.000         0.000
  External Inflow ..........         0.102         1.024
  External Outflow .........         1.900        18.998
  Flooding Loss ............         2.056        20.564
  Evaporation Loss .........         0.000         0.000
  Exfiltration Loss ........         0.000         0.000
  Initial Stored Volume ....         0.076         0.761
  Final Stored Volume ......         0.634         6.341
  Continuity Error (%) .....        -2.418
  
  
  **************************           COD            SS            TN            TP         NH4-N
  Quality Routing Continuity            kg            kg            kg            kg            kg
  **************************    ----------    ----------    ----------    ----------    ----------
  Dry Weather Inflow .......      1541.201      2465.922       147.955        18.494        92.472
  Wet Weather Inflow .......      3121.300      5750.837        60.604         4.097        28.763
  Groundwater Inflow .......         0.000         0.000         0.000         0.000         0.000
  RDII Inflow ..............         0.000         0.000         0.000         0.000         0.000
  External Inflow ..........       183.418       293.469        17.608         2.201        11.005
  External Outflow .........      2266.926      3866.269       150.485        17.819        91.362
  Flooding Loss ............      1902.826      3486.717        48.808         4.217        25.598
  Exfiltration Loss ........         0.000         0.000         0.000         0.000         0.000
  Mass Reacted .............         0.000         0.000         0.000         0.000         0.000
  Initial Stored Mass ......         0.000         0.000         0.000         0.000         0.000
  Final Stored Mass ........       535.745       916.141        23.448         2.488        13.543
  Continuity Error (%) .....         2.898         2.833         1.515         1.083         1.313
  
  
  *************************
  Highest Continuity Errors
  *************************
  Node HS02004842 (14.53%)
  Node YS02001884 (11.30%)
  Node JK-storage (-10.68%)
  Node YSB1171 (2.74%)
  Node HS02004817 (2.73%)
  
  
  ***************************
  Time-Step Critical Elements
  ***************************
  Link WS02006252WS02006251 (64.16%)
  Link WS02006280WS02006229 (10.51%)
  Link WS02006238WS02006235 (8.02%)
  Link YS02006556YS02006558 (4.19%)
  Link YS02001793JiankangQianchi (2.75%)
  
  
  ********************************
  Highest Flow Instability Indexes
  ********************************
  Link WS02006113WS02006111 (40)
  Link YS02163601YS02164001 (39)
  Link YS02163301YS02001633 (38)
  Link YS02001629YS02163301 (38)
  Link YS02001619YS02001622 (38)
  
  
  *************************
  Routing Time Step Summary
  *************************
  Minimum Time Step           :     0.10 sec
  Average Time Step           :     1.22 sec
  Maximum Time Step           :     5.00 sec
  Percent in Steady State     :    -0.00
  Average Iterations per Step :     4.43
  Percent Not Converging      :    20.37
  
  
  ***************************
  Subcatchment Runoff Summary
  ***************************
  
  ------------------------------------------------------------------------------------------------------------------------------
                            Total      Total      Total      Total     Imperv       Perv      Total       Total     Peak  Runoff
                           Precip      Runon       Evap      Infil     Runoff     Runoff     Runoff      Runoff   Runoff   Coeff
  Subcatchment                 mm         mm         mm         mm         mm         mm         mm    10^6 ltr      LPS
  ------------------------------------------------------------------------------------------------------------------------------
  sub0                      12.16       0.00       0.00       0.65      11.27       0.20      11.47        0.01     1.99   0.943
  sub1                      12.16       0.00       0.00       1.12      10.73       0.22      10.95        0.07    14.96   0.900
  sub2                      12.16       0.00       0.00       4.23       7.58       0.27       7.85        0.07    15.08   0.646
  sub3                      12.16       0.00       0.00       4.29       7.54       0.21       7.75        0.17    34.61   0.637
  sub4                      12.16       0.00       0.00       1.19      10.57       0.14      10.71        0.22    42.34   0.881
  sub5                      12.16       0.00       0.00       0.69      11.21       0.16      11.38        0.13    26.18   0.935
  sub7                      12.16       0.00       0.00       0.88      11.01       0.22      11.22        0.04     7.95   0.923
  sub8                      12.16       0.00       0.00       0.89      11.00       0.21      11.20        0.07    14.89   0.921
  sub9                      12.16       0.00       0.00       0.89      10.99       0.21      11.20        0.05    11.18   0.921
  sub10                     12.16       0.00       0.00       0.79      11.10       0.18      11.28        0.12    25.49   0.928
  sub11                     12.16       0.00       0.00       0.78      11.12       0.19      11.31        0.13    27.35   0.930
  sub12                     12.16       0.00       0.00       1.27      10.53       0.31      10.85        0.09    20.52   0.892
  sub14                     12.16       0.00       0.00       0.89      10.99       0.20      11.20        0.11    22.08   0.920
  sub15                     12.16       0.00       0.00       3.28       8.45       0.37       8.82        0.15    32.49   0.725
  sub16                     12.16       0.00       0.00       3.51       8.11       0.50       8.61        0.09    20.36   0.708
  sub17                     12.16       0.00       0.00       3.41       8.23       0.48       8.71        0.07    16.72   0.716
  sub22                     12.16       0.00       0.00       4.80       6.89       0.43       7.32        0.46   102.62   0.602
  sub23                     12.16       0.00       0.00       4.05       7.62       0.45       8.07        0.38    85.35   0.663
  sub60                     12.16       0.00       0.00       1.42       8.82       0.04       8.86        2.69   336.84   0.729
  sub61                     12.16       0.00       0.00       2.01       8.94       0.06       9.00        2.78   399.45   0.740
  sub62                     12.16       0.00       0.00       0.92       9.73       0.05       9.78        3.01   415.79   0.804
  sub63                     12.16       0.00       0.00       3.46       7.82       0.06       7.88        2.39   361.21   0.648
  sub64                     12.16       0.00       0.00       1.78       8.47       0.04       8.51        2.59   320.97   0.699
  sub65                     12.16       0.00       0.00       1.54       8.61       0.04       8.65        2.66   326.54   0.711
  sub66                     12.16       0.00       0.00       3.49       7.26       0.04       7.30        2.24   290.53   0.600
  sub67                     12.16       0.00       0.00       0.91      10.24       0.07      10.31        3.18   494.23   0.848
  sub68                     12.16       0.00       0.00       1.64       9.40       0.06       9.46        2.91   432.52   0.778
  sub69                     12.16       0.00       0.00       1.73       9.72       0.09       9.82        2.29   383.95   0.807
  sub70                     12.16      10.02       0.00       6.98      13.09       0.56      13.65        3.12   394.93   0.615
  sub71                     12.16       0.00       0.00       0.93       9.48       0.05       9.53        2.25   296.34   0.783
  sub72                     12.16       0.00       0.00       0.83       7.62       0.02       7.64        1.56   151.13   0.628
  1                         12.16      13.29       0.00       1.37      14.64       3.94      18.57        4.36   399.24   0.730
  2                         12.16       0.00       0.00       3.02       2.89       1.65       4.55        1.82   245.52   0.374
  
  
  ****************************
  Subcatchment Washoff Summary
  ****************************
  
  ------------------------------------------------------------------------------------------
                                 COD            SS            TN            TP         NH4-N
  Subcatchment                    kg            kg            kg            kg            kg
  ------------------------------------------------------------------------------------------
  sub0                         2.176         4.147         0.037         0.003         0.018
  sub1                         9.268        18.138         0.173         0.012         0.083
  sub2                         5.563        10.570         0.119         0.008         0.054
  sub3                        13.747        25.918         0.288         0.019         0.132
  sub4                        21.530        42.606         0.429         0.026         0.205
  sub5                        21.300        41.103         0.378         0.029         0.183
  sub7                         4.748         9.424         0.090         0.006         0.043
  sub8                         7.142        14.500         0.143         0.008         0.069
  sub9                         6.100        12.212         0.118         0.007         0.057
  sub10                       17.532        34.266         0.321         0.023         0.155
  sub11                       17.086        33.770         0.320         0.022         0.154
  sub12                       14.392        27.890         0.260         0.019         0.125
  sub14                       13.021        25.823         0.247         0.016         0.119
  sub15                       16.182        30.744         0.313         0.023         0.146
  sub16                       10.318        19.555         0.197         0.015         0.092
  sub17                        9.471        17.789         0.175         0.014         0.082
  sub22                       48.821        90.813         0.932         0.070         0.434
  sub23                       29.138        56.181         0.627         0.041         0.287
  sub60                      203.703       376.194         4.083         0.248         1.956
  sub61                      251.300       461.579         4.699         0.320         2.261
  sub62                      262.762       491.326         5.157         0.324         2.474
  sub63                      185.047       334.594         3.739         0.261         1.731
  sub64                      253.867       452.095         4.687         0.339         2.235
  sub65                      260.106       465.192         4.834         0.344         2.309
  sub66                      146.558       263.078         3.037         0.197         1.417
  sub67                      388.205       718.566         6.963         0.510         3.363
  sub68                      276.714       513.393         5.318         0.356         2.539
  sub69                      247.676       464.012         4.658         0.325         2.225
  sub70                      413.256       778.342         8.287         0.572         3.877
  sub71                      173.740       327.842         3.597         0.206         1.720
  sub72                      136.329       239.316         2.558         0.174         1.230
  1                          280.724       531.718         5.751         0.398         2.660
  2                           35.485        61.812         1.030         0.062         0.437
  ------------------------------------------------------------------------------------------
  System                    3783.006      6994.507        73.566         4.996        34.873
  
  
  ******************
  Node Depth Summary
  ******************
  
  ---------------------------------------------------------------------------------
                                 Average  Maximum  Maximum  Time of Max    Reported
                                   Depth    Depth      HGL   Occurrence   Max Depth
  Node                 Type       Meters   Meters   Meters  days hr:min      Meters
  ---------------------------------------------------------------------------------
  WS02001211           JUNCTION     0.77     0.83     5.67     0  03:09        0.83
  WS02001212           JUNCTION     0.48     0.55     5.62     0  03:08        0.55
  WS02001213           JUNCTION     0.71     0.83     5.59     0  03:07        0.83
  WS02003069           JUNCTION     0.51     0.68     5.27     0  03:07        0.68
  WS02003072           JUNCTION     0.57     0.73     5.10     0  03:07        0.73
  WS02003073           JUNCTION     0.35     0.46     4.52     0  03:08        0.46
  WS02003060           JUNCTION     0.45     0.60     5.53     0  03:06        0.60
  WS02003066           JUNCTION     0.24     0.36     5.92     0  03:05        0.36
  WS02003059           JUNCTION     0.76     0.88     5.57     0  03:07        0.88
  WS02003067           JUNCTION     0.59     0.79     6.11     0  03:04        0.79
  WS02004401           JUNCTION     0.71     1.14     7.14     0  03:02        1.13
  WS02004402           JUNCTION     0.73     1.14     7.10     0  03:01        1.13
  WS02004403           JUNCTION     0.75     1.13     7.06     0  03:02        1.12
  WS02004404           JUNCTION     0.83     1.18     7.03     0  03:02        1.17
  WS02004406           JUNCTION     0.83     1.12     6.95     0  03:03        1.12
  WS02004409           JUNCTION     0.52     0.87     6.64     0  03:04        0.87
  WS02004410           JUNCTION     0.54     0.87     6.59     0  03:04        0.87
  WS02004411           JUNCTION     0.55     0.86     6.54     0  03:04        0.86
  WS02004412           JUNCTION     0.57     0.85     6.49     0  03:04        0.85
  WS02004413           JUNCTION     0.72     0.98     6.45     0  03:05        0.98
  WS02004405           JUNCTION     0.82     1.16     7.01     0  03:02        1.15
  WS02006109           JUNCTION     0.80     1.31     7.93     0  03:02        1.30
  WS02006110           JUNCTION     0.78     1.15     7.74     0  03:03        1.14
  WS02006111           JUNCTION     0.24     0.65     7.36     0  03:03        0.65
  WS02006112           JUNCTION     0.88     1.42     7.30     0  03:03        1.41
  WS02006113           JUNCTION     0.36     0.65     7.54     0  03:02        0.65
  WS02006115           JUNCTION     0.60     1.09     7.23     0  03:02        1.09
  WS02006116           JUNCTION     0.68     1.15     7.19     0  03:02        1.14
  WS02006230           JUNCTION     0.80     1.52     8.26     0  03:02        1.51
  WS02006231           JUNCTION     0.54     1.22     8.34     0  03:02        1.21
  WS02006232           JUNCTION     0.68     1.36     8.40     0  03:01        1.35
  WS02006234           JUNCTION     0.61     1.32     8.47     0  03:02        1.31
  WS02006235           JUNCTION     0.65     1.37     8.53     0  03:02        1.36
  WS02006238           JUNCTION     0.67     1.39     8.53     0  03:02        1.38
  WS02006240           JUNCTION     0.56     1.28     8.57     0  03:02        1.28
  WS02006242           JUNCTION     0.61     1.33     8.60     0  03:00        1.32
  WS02006243           JUNCTION     0.49     1.33     8.75     0  05:31        1.20
  WS02006245           JUNCTION     0.46     1.26     8.74     0  06:42        1.16
  WS02006247           JUNCTION     0.47     1.23     8.73     0  06:42        1.16
  WS02006248           JUNCTION     0.41     1.10     8.69     0  06:42        1.09
  WS02006249           JUNCTION     0.43     1.09     8.69     0  02:59        1.09
  WS02006239           JUNCTION     0.62     1.35     8.55     0  03:02        1.34
  WS02006251           JUNCTION     0.41     1.27     8.94     0  04:02        1.13
  WS02006252           JUNCTION     0.27     0.80     9.05     0  04:02        0.65
  WS02006253           JUNCTION     0.44     1.44     9.08     0  04:01        1.22
  WS02006256           JUNCTION     1.77     2.35     9.28     0  00:38        2.35
  WS02004138           JUNCTION     0.19     0.20     7.45     0  00:00        0.19
  WS02004139           JUNCTION     0.71     0.77     5.68     0  03:09        0.77
  WS02004407           JUNCTION     0.23     0.37     6.68     0  03:03        0.37
  WS02006228           JUNCTION     0.81     1.44     8.09     0  03:03        1.43
  WS02006229           JUNCTION     0.79     1.49     8.18     0  03:02        1.48
  WS02006280           JUNCTION     0.07     0.20     8.47     0  03:02        0.20
  WS02006284           JUNCTION     0.37     0.56     8.96     0  03:02        0.56
  WS02006287           JUNCTION     0.10     0.30     9.25     0  03:01        0.30
  WSF200               JUNCTION     0.23     0.40     5.64     0  03:05        0.40
  HS02004901           JUNCTION     0.13     0.29    10.12     0  03:01        0.29
  HS02004881           JUNCTION     0.01     0.04     9.07     0  03:01        0.04
  HS02004876           JUNCTION     0.04     0.12     9.15     0  03:01        0.12
  HS02004870           JUNCTION     0.02     0.07     9.35     0  03:01        0.07
  HS02004862           JUNCTION     0.02     0.08     9.46     0  03:01        0.08
  HS02004856           JUNCTION     0.08     0.13     9.55     0  03:01        0.13
  HS02004852           JUNCTION     0.01     0.05     9.56     0  03:01        0.05
  HS02004848           JUNCTION     0.01     0.05     9.65     0  03:01        0.05
  HS02004842           JUNCTION     0.34     0.38     9.65     0  03:01        0.38
  HS02004837           JUNCTION     0.03     0.07     9.65     0  03:01        0.07
  HS02004830           JUNCTION     0.04     0.08     9.55     0  03:01        0.08
  HS02004824           JUNCTION     0.02     0.06     9.47     0  03:01        0.06
  HS02004817           JUNCTION     0.44     0.61     9.45     0  03:01        0.61
  HS02004807           JUNCTION     0.13     0.28     9.45     0  03:01        0.28
  HS02004802           JUNCTION     0.16     0.31     9.44     0  03:01        0.31
  HS02004799           JUNCTION     0.12     0.35     9.56     0  03:01        0.35
  HS02004792           JUNCTION     0.03     0.15     9.67     0  03:01        0.15
  HS02004788           JUNCTION     0.03     0.11    10.01     0  03:01        0.11
  HS02004785           JUNCTION     0.05     0.18    10.09     0  03:01        0.18
  HS02004777           JUNCTION     0.15     0.31    10.11     0  03:01        0.31
  HS02004770           JUNCTION     0.12     0.29    10.12     0  03:01        0.29
  HS02004480           JUNCTION     0.08     0.28     9.52     0  03:01        0.28
  HS02004479           JUNCTION     0.12     0.32     9.52     0  03:01        0.32
  HS02004478           JUNCTION     0.06     0.20     9.42     0  03:01        0.20
  YS02001745           JUNCTION     0.74     0.92     8.44     0  03:00        0.92
  YS02001748           JUNCTION     1.14     1.38     8.46     0  02:28        1.36
  YS02001751           JUNCTION     1.32     1.56     8.44     0  02:57        1.55
  YS02001754           JUNCTION     1.57     1.83     8.44     0  03:00        1.81
  YS02001762           JUNCTION     1.77     2.04     8.44     0  02:58        2.02
  YS02001765           JUNCTION     1.72     1.99     8.44     0  02:57        1.97
  YS02001767           JUNCTION     1.69     1.94     8.43     0  02:55        1.93
  YS02001770           JUNCTION     1.68     1.92     8.42     0  03:00        1.91
  YS02001774           JUNCTION     1.75     1.98     8.40     0  02:40        1.97
  YS02001779           JUNCTION     1.50     1.68     8.37     0  02:36        1.68
  YS02001882           JUNCTION     0.54     1.62     8.33     0  02:59        1.61
  YS02001884           JUNCTION     0.63     1.72     8.34     0  02:58        1.71
  YS02001759           JUNCTION     1.81     2.08     8.44     0  02:57        2.06
  YS02001887           JUNCTION     0.71     1.80     8.33     0  02:59        1.79
  YS02001890           JUNCTION     0.74     1.81     8.32     0  02:46        1.81
  YS02001898           JUNCTION     0.51     1.56     8.29     0  02:59        1.55
  YS02001901           JUNCTION     0.63     1.67     8.28     0  02:46        1.67
  YS02001904           JUNCTION     0.60     1.64     8.27     0  02:59        1.63
  YS02001907           JUNCTION     0.94     1.96     8.25     0  02:46        1.96
  YS02001910           JUNCTION     0.73     1.77     8.28     0  02:48        1.77
  YS02001915           JUNCTION     0.52     1.58     8.29     0  02:48        1.56
  YS02001918           JUNCTION     0.28     1.24     8.30     0  02:48        1.23
  YS02001619           JUNCTION     1.28     1.61     8.54     0  02:23        1.47
  YS02001629           JUNCTION     1.63     1.85     8.40     0  02:25        1.84
  YS02001641           JUNCTION     1.73     1.93     8.37     0  03:14        1.93
  YS02001644           JUNCTION     1.73     1.92     8.35     0  02:35        1.92
  YS02001652           JUNCTION     1.58     2.16     8.76     0  02:44        1.93
  YS02001655           JUNCTION     1.35     2.20     9.05     0  02:19        1.75
  YS02001920           JUNCTION     0.38     1.31     8.32     0  02:48        1.29
  YS02001923           JUNCTION     0.21     1.06     8.32     0  02:48        1.05
  YS02001926           JUNCTION     0.27     0.88     8.32     0  02:48        0.88
  YS02001929           JUNCTION     0.15     0.63     8.32     0  02:47        0.62
  YS02001658           JUNCTION     1.08     2.30     9.44     0  02:44        1.53
  YS02001661           JUNCTION     0.84     2.46     9.86     0  02:44        1.41
  YS02001664           JUNCTION     0.38     0.57     8.50     0  02:47        0.57
  YS02001622           JUNCTION     1.30     1.62     8.52     0  02:23        1.49
  YS02001633           JUNCTION     1.72     1.94     8.40     0  02:58        1.93
  YS02001649           JUNCTION     1.78     2.05     8.44     0  02:39        2.05
  YS02001757           JUNCTION     1.90     2.18     8.44     0  02:58        2.16
  YS02001895           JUNCTION     0.50     1.56     8.31     0  03:00        1.56
  YS02001625           JUNCTION     1.59     1.78     8.38     0  02:25        1.78
  YS02163301           JUNCTION     1.66     1.88     8.40     0  03:01        1.88
  YS02163601           JUNCTION     1.78     1.99     8.39     0  02:51        1.98
  YS02164001           JUNCTION     1.71     1.92     8.38     0  02:36        1.91
  YS02001647           JUNCTION     1.57     1.80     8.41     0  02:42        1.80
  YSB1154              JUNCTION     0.26     0.47     9.52     0  03:01        0.47
  YSB6556              JUNCTION     0.15     0.35     9.52     0  03:01        0.35
  YSB1174              JUNCTION     0.21     0.41     9.52     0  03:01        0.41
  YSB1171              JUNCTION     0.41     0.62     9.52     0  03:01        0.62
  YS02006553           JUNCTION     0.94     1.97     8.25     0  02:58        1.96
  YS02006561           JUNCTION     0.30     1.06     7.72     0  03:00        1.05
  YS02006556           JUNCTION     0.90     1.92     8.23     0  03:02        1.91
  YS02006558           JUNCTION     0.95     1.96     8.23     0  03:00        1.96
  YS02001783           JUNCTION     0.51     1.45     7.59     0  02:58        1.44
  YS02001784           JUNCTION     0.52     1.58     7.65     0  02:19        1.38
  YS02001786           JUNCTION     0.46     1.59     7.62     0  02:19        1.21
  YS02001788           JUNCTION     0.38     1.26     7.24     0  02:19        1.08
  YS02001790           JUNCTION     0.48     1.96     7.60     0  02:18        1.23
  YS02001791           JUNCTION     0.43     2.72     8.19     0  02:18        1.23
  YS02001793           JUNCTION     0.58     3.60     8.43     0  02:17        1.80
  WSC                  OUTFALL      0.35     0.46     1.13     0  03:08        0.46
  JK-storage           STORAGE      2.51     5.80     6.60     0  02:19        5.80
  CC-storage           STORAGE      1.16     1.42     8.42     0  03:12        1.42
  XR-storage           STORAGE      6.47     7.72     5.72     0  02:57        7.72
  
  
  *******************
  Node Inflow Summary
  *******************
  
  -------------------------------------------------------------------------------------------------
                                  Maximum  Maximum                  Lateral       Total        Flow
                                  Lateral    Total  Time of Max      Inflow      Inflow     Balance
                                   Inflow   Inflow   Occurrence      Volume      Volume       Error
  Node                 Type           LPS      LPS  days hr:min    10^6 ltr    10^6 ltr     Percent
  -------------------------------------------------------------------------------------------------
  WS02001211           JUNCTION      7.35   391.13     0  03:14       0.207        10.1       0.392
  WS02001212           JUNCTION      0.00   394.53     0  03:14           0        10.1       0.239
  WS02001213           JUNCTION      0.00   397.62     0  03:14           0        10.1       0.267
  WS02003069           JUNCTION      0.32  1221.06     0  03:06     0.00902        19.1       0.157
  WS02003072           JUNCTION      0.00  1220.95     0  03:07           0          19       0.195
  WS02003073           JUNCTION      1.82  1222.85     0  03:07      0.0514          19       0.223
  WS02003060           JUNCTION     16.53  1220.65     0  03:06       0.466        19.1       0.150
  WS02003066           JUNCTION      0.00   829.09     0  03:05           0        8.61       0.040
  WS02003059           JUNCTION      0.00   401.72     0  03:14           0        10.1       0.387
  WS02003067           JUNCTION      0.00   828.81     0  03:05           0        8.61       0.086
  WS02004401           JUNCTION      0.00   832.12     0  03:03           0         8.8       0.199
  WS02004402           JUNCTION      0.00   832.32     0  03:03           0        8.78       0.190
  WS02004403           JUNCTION      0.00   831.75     0  03:03           0        8.77       0.177
  WS02004404           JUNCTION      0.16   832.18     0  03:03     0.00457        8.75       0.138
  WS02004406           JUNCTION      0.00   831.79     0  03:03           0        8.73       0.333
  WS02004409           JUNCTION      0.00   831.39     0  03:03           0        8.69       0.129
  WS02004410           JUNCTION      0.00   829.75     0  03:04           0        8.68       0.153
  WS02004411           JUNCTION      0.00   829.02     0  03:04           0        8.67       0.162
  WS02004412           JUNCTION      0.00   828.74     0  03:04           0        8.65       0.182
  WS02004413           JUNCTION      0.00   828.73     0  03:05           0        8.64       0.283
  WS02004405           JUNCTION      0.04   832.77     0  03:03     0.00107        8.74       0.204
  WS02006109           JUNCTION      1.23   818.44     0  03:02      0.0347        8.83       0.188
  WS02006110           JUNCTION      0.00   818.36     0  03:02           0        8.81       0.204
  WS02006111           JUNCTION      0.00   817.97     0  03:02           0        8.78       0.034
  WS02006112           JUNCTION     16.72   831.20     0  03:03      0.0747        8.85       0.302
  WS02006113           JUNCTION      0.00   818.28     0  03:02           0        8.79       0.086
  WS02006115           JUNCTION      0.00   831.46     0  03:03           0        8.83       0.177
  WS02006116           JUNCTION      0.00   831.86     0  03:03           0        8.81       0.148
  WS02006230           JUNCTION     10.28   526.71     0  04:03        0.29        6.66       0.146
  WS02006231           JUNCTION      0.00   516.41     0  04:03           0        6.37       0.125
  WS02006232           JUNCTION      0.00   516.46     0  04:03           0        6.39       0.226
  WS02006234           JUNCTION      0.00   516.71     0  04:03           0        6.39       0.065
  WS02006235           JUNCTION      0.00   517.04     0  04:03           0        6.49       0.173
  WS02006238           JUNCTION      0.00   381.13     0  06:21           0        3.07       0.041
  WS02006240           JUNCTION      0.00   382.91     0  06:20           0           3       0.310
  WS02006242           JUNCTION      0.00   382.73     0  06:20           0        2.98       0.458
  WS02006243           JUNCTION      0.00   383.18     0  06:20           0        2.96       0.129
  WS02006245           JUNCTION      0.00   383.72     0  06:20           0        2.96       0.396
  WS02006247           JUNCTION      0.00   387.30     0  06:13           0        2.97       0.243
  WS02006248           JUNCTION      0.00   391.23     0  06:14           0        2.97       0.094
  WS02006249           JUNCTION      0.00   394.85     0  06:14           0        2.99       0.348
  WS02006239           JUNCTION      0.00   381.75     0  06:20           0        3.03       0.133
  WS02006251           JUNCTION      0.08   400.83     0  06:13     0.00217        3.07       0.277
  WS02006252           JUNCTION      0.00   400.00     0  06:10           0        2.58       0.020
  WS02006253           JUNCTION      1.99   147.27     0  04:00     0.00928       0.493       0.770
  WS02006256           JUNCTION      0.00   983.00     0  02:40           0        9.62       0.010
  WS02004138           JUNCTION      0.00   380.00     0  00:00           0        9.97       0.066
  WS02004139           JUNCTION      0.32   394.45     0  00:00     0.00905        9.98       0.452
  WS02004407           JUNCTION      0.00   831.81     0  03:03           0         8.7       0.058
  WS02006228           JUNCTION      0.00   817.44     0  03:02           0         8.8       0.135
  WS02006229           JUNCTION      0.00   817.84     0  03:02           0        8.82       0.151
  WS02006280           JUNCTION      0.00   413.64     0  03:02           0        2.17       0.005
  WS02006284           JUNCTION      0.10   413.59     0  03:02      0.0027        2.17       0.042
  WS02006287           JUNCTION      0.00   413.24     0  03:01           0        2.17       0.033
  WSF200               JUNCTION      0.00   829.18     0  03:05           0         8.6       0.032
  HS02004901           JUNCTION     20.36    20.36     0  03:01      0.0901      0.0904       1.991
  HS02004881           JUNCTION      7.95    84.19     0  03:01      0.0378        0.41       0.080
  HS02004876           JUNCTION     14.96    76.75     0  03:01      0.0728       0.373       0.148
  HS02004870           JUNCTION     14.89    62.15     0  03:01      0.0716         0.3       0.037
  HS02004862           JUNCTION     15.28    47.68     0  03:01      0.0788       0.229       0.077
  HS02004856           JUNCTION     11.18    32.72     0  03:01      0.0539       0.152       0.962
  HS02004852           JUNCTION      0.00    21.94     0  03:01           0      0.0979       0.059
  HS02004848           JUNCTION     34.61    34.61     0  03:01       0.174       0.174       0.028
  HS02004842           JUNCTION      0.00    12.41     0  03:01           0      0.0895      16.999
  HS02004837           JUNCTION     31.84    43.95     0  03:01       0.303        0.38       0.214
  HS02004830           JUNCTION      0.15    43.86     0  03:01     0.00423        0.37       0.334
  HS02004824           JUNCTION     42.39    85.90     0  03:01       0.225       0.594       0.091
  HS02004817           JUNCTION      0.60    86.29     0  03:01      0.0169        0.61       2.809
  HS02004807           JUNCTION     27.35   112.31     0  03:01       0.131       0.725       0.605
  HS02004802           JUNCTION      0.00   111.37     0  03:01           0       0.723       0.546
  HS02004799           JUNCTION     22.08   258.94     0  03:01       0.107        1.24       0.223
  HS02004792           JUNCTION    102.90   238.00     0  03:01        0.47        1.14       0.036
  HS02004788           JUNCTION     34.16   135.93     0  03:01       0.199       0.669       0.058
  HS02004785           JUNCTION      0.15   103.52     0  03:01     0.00423       0.471       0.106
  HS02004777           JUNCTION      0.03   104.16     0  03:01    0.000846       0.472       1.115
  HS02004770           JUNCTION     85.35   105.11     0  03:01       0.385       0.473       0.659
  HS02004480           JUNCTION      0.00   302.46     0  03:01           0        1.46       0.076
  HS02004479           JUNCTION      0.00    44.91     0  03:02           0       0.232       0.317
  HS02004478           JUNCTION      0.00   413.10     0  03:01           0        2.17       0.014
  YS02001745           JUNCTION    336.84   377.82     0  02:26        2.69         2.7       0.418
  YS02001748           JUNCTION      0.04   538.87     0  02:27     0.00127        2.69       0.815
  YS02001751           JUNCTION      0.01   342.81     0  03:01     0.00031        2.65       0.900
  YS02001754           JUNCTION      0.26   343.21     0  03:01     0.00733        2.64       0.946
  YS02001762           JUNCTION      0.00   290.29     0  02:38           0        1.88       1.134
  YS02001765           JUNCTION      0.00   290.31     0  02:38           0        1.88       1.320
  YS02001767           JUNCTION      0.54   290.73     0  02:38      0.0151        1.91       1.906
  YS02001770           JUNCTION    415.94   565.03     0  03:01        3.01        3.49       0.913
  YS02001774           JUNCTION      0.00   565.59     0  03:01           0        2.05       1.238
  YS02001779           JUNCTION      0.01   565.60     0  03:01    0.000141        2.02       0.769
  YS02001882           JUNCTION      0.00    13.56     0  02:35           0      0.0167      15.528
  YS02001884           JUNCTION      0.00    22.29     0  02:22           0      0.0541      12.737
  YS02001759           JUNCTION    399.49   572.73     0  02:38        2.78        4.15       0.557
  YS02001887           JUNCTION    494.68   495.51     0  03:01        3.19        3.23       0.270
  YS02001890           JUNCTION      0.00   495.32     0  03:01           0        3.18       0.295
  YS02001898           JUNCTION      0.00   495.15     0  03:01           0        3.16       0.098
  YS02001901           JUNCTION      0.00   495.84     0  03:01           0        3.16       0.220
  YS02001904           JUNCTION      0.00   495.50     0  03:01           0        3.16       0.201
  YS02001907           JUNCTION      0.00   950.34     0  03:01           0        7.02       0.348
  YS02001910           JUNCTION      0.00   455.49     0  03:01           0        3.87       0.309
  YS02001915           JUNCTION    296.36   455.21     0  03:01        2.25        3.88       0.155
  YS02001918           JUNCTION      0.00   207.40     0  03:30           0        1.64       0.098
  YS02001619           JUNCTION    290.53   290.53     0  03:01        2.24        2.24       0.547
  YS02001629           JUNCTION      0.00   192.21     0  02:17           0        1.69       1.736
  YS02001641           JUNCTION      0.00   396.85     0  02:35           0        4.25       0.502
  YS02001644           JUNCTION    321.01  1350.10     0  03:01        2.59        10.6       0.248
  YS02001652           JUNCTION      0.00   374.57     0  03:00           0        2.34       1.005
  YS02001655           JUNCTION      0.15   373.18     0  03:00     0.00434        2.36       1.057
  YS02001920           JUNCTION      2.87   189.72     0  03:29      0.0809        1.63       0.171
  YS02001923           JUNCTION      0.04   167.74     0  02:48     0.00106        1.55       0.057
  YS02001926           JUNCTION      0.05   156.62     0  03:01     0.00147        1.56       0.209
  YS02001929           JUNCTION    151.13   151.13     0  03:01        1.56        1.56       0.038
  YS02001658           JUNCTION      0.00   594.10     0  02:23           0         2.4       0.893
  YS02001661           JUNCTION      0.00   621.94     0  02:43           0        2.69      -0.068
  YS02001664           JUNCTION    361.21   361.21     0  03:01        2.38        2.68       0.241
  YS02001622           JUNCTION      0.00   291.28     0  03:01           0        2.22       1.442
  YS02001633           JUNCTION    326.74   396.37     0  02:35        2.66        4.31       0.748
  YS02001649           JUNCTION      0.00   825.45     0  02:35           0        6.32       0.597
  YS02001757           JUNCTION      0.00  1576.68     0  02:35           0        8.92       1.043
  YS02001895           JUNCTION      0.00   495.18     0  03:01           0        3.17       0.159
  YS02001625           JUNCTION      0.00   290.54     0  03:01           0        2.19       1.800
  YS02163301           JUNCTION      0.00   195.69     0  02:25           0        1.67       1.451
  YS02163601           JUNCTION      0.11   396.54     0  02:35      0.0031        4.27       0.706
  YS02164001           JUNCTION      0.00   396.68     0  02:35           0        4.25       0.474
  YS02001647           JUNCTION      0.00   673.34     0  03:14           0        5.52       0.514
  YSB1154              JUNCTION     26.18    26.18     0  03:01       0.129        0.13       1.131
  YSB6556              JUNCTION      0.00    25.82     0  03:01           0        0.13       0.969
  YSB1174              JUNCTION     20.52    20.52     0  03:01      0.0948      0.0952       1.369
  YSB1171              JUNCTION      0.00    45.30     0  03:01           0       0.231       2.821
  YS02006553           JUNCTION      0.00   704.48     0  03:31           0         6.6       0.232
  YS02006561           JUNCTION      0.00  1022.83     0  02:47           0        9.47       0.007
  YS02006556           JUNCTION      0.00   704.56     0  03:31           0         6.6       0.176
  YS02006558           JUNCTION    433.40  1022.94     0  02:47        2.93        9.51       0.054
  YS02001783           JUNCTION      0.00  1022.48     0  02:47           0        9.47       0.023
  YS02001784           JUNCTION      1.06  1023.65     0  02:47      0.0299         9.5       0.040
  YS02001786           JUNCTION      0.06  1023.57     0  02:47     0.00159         9.5       0.035
  YS02001788           JUNCTION      0.07  1023.49     0  02:47       0.002         9.5       0.022
  YS02001790           JUNCTION      0.15  1023.80     0  02:47     0.00437         9.5       0.017
  YS02001791           JUNCTION      0.00  1023.87     0  02:47           0         9.5       0.000
  YS02001793           JUNCTION      0.00  1024.02     0  02:47           0         9.5      -0.012
  WSC                  OUTFALL       0.00  1223.05     0  03:08           0          19       0.000
  JK-storage           STORAGE       0.00  1023.95     0  02:47           0        9.65      -9.649
  CC-storage           STORAGE       0.00  1577.12     0  02:35           0        6.55       0.996
  XR-storage           STORAGE     844.76   844.76     0  03:01        11.8        12.4      -0.003
  
  
  **********************
  Node Surcharge Summary
  **********************
  
  Surcharging occurs when water rises above the top of the highest conduit.
  ---------------------------------------------------------------------
                                               Max. Height   Min. Depth
                                   Hours       Above Crown    Below Rim
  Node                 Type      Surcharged         Meters       Meters
  ---------------------------------------------------------------------
  WS02004401           JUNCTION        0.24          0.135        1.525
  WS02004402           JUNCTION        0.27          0.136        1.604
  WS02004403           JUNCTION        0.27          0.125        1.905
  WS02004404           JUNCTION        0.56          0.176        2.604
  WS02004406           JUNCTION        0.44          0.117        2.333
  WS02004405           JUNCTION        0.50          0.157        2.643
  WS02006109           JUNCTION        3.17          0.491        1.329
  WS02006110           JUNCTION        0.90          0.240        1.610
  WS02006112           JUNCTION        1.31          0.416        1.264
  WS02006115           JUNCTION        0.14          0.080        2.170
  WS02006116           JUNCTION        0.16          0.085        2.205
  WS02006230           JUNCTION        0.60          0.439        1.131
  WS02006231           JUNCTION        1.04          0.508        1.022
  WS02006232           JUNCTION        3.07          0.665        0.815
  WS02006234           JUNCTION        2.01          0.596        0.644
  WS02006235           JUNCTION        2.32          0.659        0.631
  WS02006238           JUNCTION        2.46          0.671        0.759
  WS02006240           JUNCTION        1.64          0.568        0.822
  WS02006242           JUNCTION        1.88          0.604        0.216
  WS02006243           JUNCTION        1.05          0.619        0.151
  WS02006245           JUNCTION        0.87          0.546        0.304
  WS02006247           JUNCTION        0.90          0.520        0.240
  WS02006248           JUNCTION        0.64          0.380        0.000
  WS02006249           JUNCTION        0.74          0.390        0.000
  WS02006239           JUNCTION        1.91          0.606        0.684
  WS02006251           JUNCTION        0.12          0.236        0.944
  WS02006252           JUNCTION        1.11          0.404        0.696
  WS02006253           JUNCTION        0.13          0.401        2.079
  WS02006256           JUNCTION        6.97          2.050        0.000
  WS02006228           JUNCTION        3.09          0.611        1.589
  YS02001748           JUNCTION        5.31          0.298        0.892
  YS02001751           JUNCTION        5.49          0.560        0.640
  YS02001754           JUNCTION        5.69          0.778        0.372
  YS02001762           JUNCTION        5.87          1.036        0.114
  YS02001765           JUNCTION        5.84          0.986        0.114
  YS02001767           JUNCTION        5.81          0.942        0.088
  YS02001770           JUNCTION        5.80          0.891        0.029
  YS02001774           JUNCTION        5.86          0.979        0.071
  YS02001779           JUNCTION        5.67          0.680        0.000
  YS02001882           JUNCTION        0.94          0.619        0.211
  YS02001884           JUNCTION        0.97          0.660        0.210
  YS02001759           JUNCTION        5.89          1.076        0.134
  YS02001887           JUNCTION        1.04          0.746        0.204
  YS02001890           JUNCTION        1.07          0.760        0.000
  YS02001898           JUNCTION        0.90          0.529        0.211
  YS02001901           JUNCTION        1.01          0.675        0.195
  YS02001904           JUNCTION        0.98          0.639        0.211
  YS02001907           JUNCTION        1.78          0.950        0.000
  YS02001910           JUNCTION        1.12          0.771        0.329
  YS02001915           JUNCTION        0.93          0.576        0.424
  YS02001918           JUNCTION        0.70          0.236        0.574
  YS02001619           JUNCTION        5.47          0.610        0.000
  YS02001629           JUNCTION        5.49          0.470        0.000
  YS02001641           JUNCTION        5.85          0.935        0.165
  YS02001644           JUNCTION        5.85          0.920        0.000
  YS02001652           JUNCTION        5.73          1.130        0.000
  YS02001655           JUNCTION        5.50          1.200        0.000
  YS02001920           JUNCTION        0.74          0.307        0.833
  YS02001658           JUNCTION        5.34          1.300        0.000
  YS02001661           JUNCTION        0.16          1.390        0.000
  YS02001622           JUNCTION        5.51          0.620        0.000
  YS02001633           JUNCTION        5.83          0.923        0.137
  YS02001649           JUNCTION        5.88          1.050        0.000
  YS02001757           JUNCTION        5.98          1.179        0.031
  YS02001895           JUNCTION        0.91          0.562        0.188
  YS02001625           JUNCTION        5.76          0.780        0.000
  YS02163301           JUNCTION        5.81          0.882        0.148
  YS02163601           JUNCTION        5.87          0.989        0.091
  YS02164001           JUNCTION        5.83          0.918        0.182
  YS02001647           JUNCTION        5.75          0.804        0.096
  YS02006553           JUNCTION        1.87          0.965        0.225
  YS02006561           JUNCTION        0.74          0.263        0.887
  YS02006556           JUNCTION        1.36          0.881        0.469
  YS02006558           JUNCTION        1.32          0.862        0.538
  YS02001783           JUNCTION        1.29          0.648        0.952
  YS02001784           JUNCTION        1.27          0.781        0.709
  YS02001786           JUNCTION        1.22          0.790        0.640
  YS02001788           JUNCTION        1.17          0.458        1.022
  YS02001790           JUNCTION        1.92          1.157        0.000
  YS02001791           JUNCTION        2.01          1.920        0.000
  YS02001793           JUNCTION        2.27          2.600        0.000
  
  
  *********************
  Node Flooding Summary
  *********************
  
  Flooding refers to all water that overflows a node, whether it ponds or not.
  --------------------------------------------------------------------------
                                                             Total   Maximum
                                 Maximum   Time of Max       Flood    Ponded
                        Hours       Rate    Occurrence      Volume     Depth
  Node                 Flooded       LPS   days hr:min    10^6 ltr    Meters
  --------------------------------------------------------------------------
  WS02006248              0.01     13.76      0  06:42       0.000     0.000
  WS02006249              0.11     76.81      0  04:02       0.012     0.000
  WS02006256              3.77    810.39      0  03:02       6.125     0.000
  YS02001779              3.03    565.52      0  03:01       1.997     0.000
  YS02001890              0.01      1.34      0  03:01       0.000     0.000
  YS02001907              0.54    400.15      0  03:01       0.411     0.000
  YS02001619              0.01     17.88      0  02:23       0.000     0.000
  YS02001629              0.01     14.65      0  02:25       0.000     0.000
  YS02001644              4.58   1349.79      0  03:01       8.777     0.000
  YS02001652              0.01     17.04      0  02:44       0.000     0.000
  YS02001655              0.01    192.33      0  02:19       0.000     0.000
  YS02001658              0.01     11.51      0  02:44       0.000     0.000
  YS02001661              0.01    156.60      0  02:44       0.000     0.000
  YS02001622              0.01      9.82      0  02:23       0.000     0.000
  YS02001649              0.04     45.63      0  02:44       0.001     0.000
  YS02001625              1.18    236.58      0  03:01       0.465     0.000
  YS02001790              0.01    237.78      0  02:18       0.000     0.000
  YS02001791              0.01    211.26      0  02:18       0.000     0.000
  YS02001793              0.01    371.53      0  02:17       0.000     0.000
  JK-storage              0.81    656.71      0  02:20       0.956     0.000
  XR-storage              3.02    464.70      0  03:01       1.819     0.000
  
  
  **********************
  Storage Volume Summary
  **********************
  
  --------------------------------------------------------------------------------------------------
                         Average     Avg  Evap Exfil       Maximum     Max    Time of Max    Maximum
                          Volume    Pcnt  Pcnt  Pcnt        Volume    Pcnt     Occurrence    Outflow
  Storage Unit           1000 m3    Full  Loss  Loss       1000 m3    Full    days hr:min        LPS
  --------------------------------------------------------------------------------------------------
  JK-storage               0.126      43     0     0         0.291     100       0  02:19     983.00
  CC-storage               3.246      21     0     0         3.962      25       0  03:12     400.00
  XR-storage               0.777      84     0     0         0.926     100       0  02:57     380.00
  
  
  ***********************
  Outfall Loading Summary
  ***********************
  
  ---------------------------------------------------------------------------------------------------------------------------------
                         Flow       Avg       Max       Total         Total         Total         Total         Total         Total
                         Freq      Flow      Flow      Volume           COD            SS            TN            TP         NH4-N
  Outfall Node           Pcnt       LPS       LPS    10^6 ltr            kg            kg            kg            kg            kg
  ---------------------------------------------------------------------------------------------------------------------------------
  WSC                  100.00    756.49   1223.05      18.998      2267.130      3866.601       150.504        17.821        91.373
  ---------------------------------------------------------------------------------------------------------------------------------
  System               100.00    756.49   1223.05      18.998      2267.130      3866.601       150.504        17.821        91.373
  
  
  ********************
  Link Flow Summary
  ********************
  
  -----------------------------------------------------------------------------
                                 Maximum  Time of Max   Maximum    Max/    Max/
                                  |Flow|   Occurrence   |Veloc|    Full    Full
  Link                 Type          LPS  days hr:min     m/sec    Flow   Depth
  -----------------------------------------------------------------------------
  WS02003066WSF200     CONDUIT    829.18     0  03:05      2.94    0.14    0.30
  WS02006287WS02006284 CONDUIT    413.49     0  03:02      2.04    0.19    0.30
  WS02006284WS02006280 CONDUIT    413.64     0  03:02      2.28    0.17    0.28
  WS02006280WS02006229 CONDUIT    413.64     0  03:02      3.62    0.09    0.25
  WS02006229WS02006228 CONDUIT    817.44     0  03:02      1.63    2.71    1.00
  WS02006256WS02006235 CONDUIT    263.67     0  05:02      3.73    2.79    1.00
  WS02006253WS02006251 CONDUIT    141.86     0  04:00      0.57    0.43    1.00
  WS02006252WS02006251 CONDUIT    400.76     0  06:13      3.19    1.47    1.00
  WS02006251WS02006249 CONDUIT    394.85     0  06:14      1.14    1.14    1.00
  WS02006249WS02006248 CONDUIT    391.23     0  06:14      1.19    2.14    1.00
  WS02006248WS02006247 CONDUIT    387.30     0  06:13      1.17    0.84    1.00
  WS02006247WS02006245 CONDUIT    383.72     0  06:20      1.15    3.04    1.00
  WS02006245WS02006243 CONDUIT    383.18     0  06:20      1.19    1.13    1.00
  WS02006243WS02006242 CONDUIT    382.73     0  06:20      1.07    0.82    1.00
  WS02006242WS02006240 CONDUIT    382.91     0  06:20      1.02    1.52    1.00
  WS02006240WS02006239 CONDUIT    381.75     0  06:20      1.07    1.20    1.00
  WS02006239WS02006238 CONDUIT    381.13     0  06:21      0.99    1.22    1.00
  WS02006238WS02006235 CONDUIT    381.73     0  06:21      0.99    0.85    1.00
  WS02006235WS02006234 CONDUIT    516.71     0  04:03      1.34    5.45    1.00
  WS02006234WS02006232 CONDUIT    516.46     0  04:03      1.34    1.04    1.00
  WS02006232WS02006231 CONDUIT    516.41     0  04:03      1.34    1.08    1.00
  WS02006231WS02006230 CONDUIT    516.43     0  04:03      1.35    7.83    1.00
  WS02006230WS02006229 CONDUIT    526.60     0  04:04      1.37   11.72    1.00
  WS02006228WS02006109 CONDUIT    817.21     0  03:02      1.63    3.57    1.00
  WS02006116WS02004401 CONDUIT    832.12     0  03:03      1.06    1.15    1.00
  WS02006115WS02006116 CONDUIT    831.86     0  03:03      1.06    1.07    1.00
  WS02006113WS02006111 CONDUIT    817.97     0  03:02      2.58    0.98    0.81
  WS02006112WS02006115 CONDUIT    831.46     0  03:03      1.06    0.49    1.00
  WS02006111WS02006112 CONDUIT    818.81     0  03:03      1.73    0.39    0.90
  WS02006110WS02006113 CONDUIT    818.28     0  03:02      1.73    0.74    0.90
  WS02006109WS02006110 CONDUIT    818.36     0  03:02      1.63    1.57    1.00
  WS02004411WS02004412 CONDUIT    828.74     0  03:04      1.16    1.18    0.85
  WS02004401WS02004402 CONDUIT    832.32     0  03:03      1.06    1.00    1.00
  WS02004413WS02003067 CONDUIT    828.81     0  03:05      1.42    0.35    0.70
  WS02004412WS02004413 CONDUIT    828.73     0  03:05      1.10    0.56    0.91
  WS02004410WS02004411 CONDUIT    829.02     0  03:04      1.15    1.13    0.86
  WS02004409WS02004410 CONDUIT    829.75     0  03:04      1.15    1.07    0.87
  WS02004407WS02004409 CONDUIT    831.39     0  03:03      1.64    0.29    0.62
  WS02004406WS02004407 CONDUIT    831.81     0  03:03      1.45    0.37    0.69
  WS02004405WS02004406 CONDUIT    831.79     0  03:03      1.06    1.64    1.00
  WS02004404WS02004405 CONDUIT    832.73     0  03:03      1.09    8.16    1.00
  WS02004403WS02004404 CONDUIT    832.02     0  03:03      1.06    0.60    1.00
  WS02004402WS02004403 CONDUIT    831.75     0  03:03      1.06    1.19    1.00
  WS02004139WS02001211 CONDUIT    383.79     0  03:14      0.90    0.49    0.63
  WS02004138WS02004139 CONDUIT    394.13     0  00:00      3.62    0.08    0.46
  WS02003067WS02003066 CONDUIT    829.09     0  03:05      1.54    0.27    0.48
  WS02001213WS02003059 CONDUIT    401.72     0  03:14      0.89    0.66    0.84
  WS02001212WS02001213 CONDUIT    397.62     0  03:14      1.32    0.61    0.53
  WS02001211WS02001212 CONDUIT    394.53     0  03:14      0.78    0.30    0.69
  WS02003072WS02003073 CONDUIT   1221.03     0  03:07      1.90    2.64    0.55
  WS02003069WS02003072 CONDUIT   1220.95     0  03:07      1.77    0.59    0.59
  WS02003060WS02003069 CONDUIT   1220.74     0  03:06      1.99    0.48    0.53
  WS02003059WS02003060 CONDUIT    407.24     0  03:13      0.95    0.27    0.74
  HS02004901HS02004770 CONDUIT     20.52     0  03:01      0.07    0.08    0.42
  HS02004876HS02004881 CONDUIT     76.55     0  03:01      0.95    0.81    0.12
  HS02004870HS02004876 CONDUIT     61.90     0  03:01      0.65    0.04    0.14
  HS02004842HS02004848 CONDUIT     12.41     0  03:01      0.06    0.01    0.31
  HS02004837HS02004842 CONDUIT     12.98     0  03:02      0.42    0.01    0.32
  HS02004830HS02004837 CONDUIT     43.71     0  03:01      0.57    0.04    0.11
  HS02004824HS02004830 CONDUIT     43.67     0  03:01      0.59    0.06    0.11
  HS02004817HS02004824 CONDUIT     85.69     0  03:01      0.26    0.04    0.48
  HS02004770HS02004777 CONDUIT    104.13     0  03:01      0.35    0.19    0.43
  HS02004799HS02004480 CONDUIT    258.31     0  03:01      0.83    0.33    0.44
  HS02004792HS02004799 CONDUIT    237.06     0  03:01      0.95    0.15    0.36
  HS02004788HS02004792 CONDUIT    135.43     0  03:01      1.06    0.09    0.18
  HS02004785HS02004788 CONDUIT    103.22     0  03:02      0.71    0.78    0.21
  HS02004777HS02004785 CONDUIT    103.37     0  03:01      0.42    0.13    0.35
  HS02004480HS02004478 CONDUIT    302.30     0  03:01      1.26    1.27    0.34
  HS02004479HS02004480 CONDUIT     46.30     0  03:02      0.32    0.04    0.43
  HS02004862HS02004870 CONDUIT     47.43     0  03:01      0.66    0.05    0.10
  HS02004848HS02004852 CONDUIT     21.94     0  03:01      0.45    0.02    0.07
  HS02004856HS02004862 CONDUIT     32.47     0  03:01      0.48    0.03    0.10
  HS02004852HS02004856 CONDUIT     21.85     0  03:02      0.25    0.02    0.13
  HS02004802HS02004478 CONDUIT    111.52     0  03:02      0.45    0.10    0.36
  HS02004478WS02006287 CONDUIT    413.24     0  03:01      1.75    0.12    0.26
  HS02004817HS02004807 CONDUIT     86.14     0  03:01      0.19    0.05    0.63
  HS02004807HS02004802 CONDUIT    111.37     0  03:01      0.38    0.21    0.42
  YS02001759YS02001757 CONDUIT    572.82     0  02:38      0.73    0.41    1.00
  YS02001762YS02001759 CONDUIT    290.68     0  02:38      0.37    0.33    1.00
  YS02001765YS02001762 CONDUIT    290.29     0  02:38      0.37    0.27    1.00
  YS02001770YS02001767 CONDUIT    290.20     0  02:38      0.37    1.15    1.00
  YS02001774YS02001770 CONDUIT    565.59     0  03:01      0.72    0.36    1.00
  YS02001779YS02001774 CONDUIT    565.60     0  03:01      0.72    0.28    1.00
  YS02001649YS02001757 CONDUIT    826.48     0  02:35      1.05    0.50    1.00
  YS02001767YS02001765 CONDUIT    290.31     0  02:38      0.37    0.37    1.00
  YS02006561YS02001783 CONDUIT   1022.48     0  02:47      2.14    0.53    1.00
  YS02001783YS02001784 CONDUIT   1022.59     0  02:47      2.03    1.41    1.00
  YS02001784YS02001785 CONDUIT   1023.51     0  02:47      2.04    2.38    1.00
  YS02001788YS02001790 CONDUIT   1023.65     0  02:47      2.44    0.75    1.00
  YS02001790YS02001791 CONDUIT   1023.87     0  02:47      2.90    1.11    1.00
  YS02001791YS02001793 CONDUIT   1024.02     0  02:47      5.75    0.44    1.00
  YS02001910YS02001907 CONDUIT    455.03     0  03:01      0.58    0.26    1.00
  YS02001786YS02001788 CONDUIT   1023.42     0  02:47      2.31    1.97    1.00
  YS02001915YS02001910 CONDUIT    455.49     0  03:01      0.59    0.23    1.00
  YS02001918YS02001915 CONDUIT    246.20     0  03:31      0.44    0.14    1.00
  YS02001923YS02001920 CONDUIT    186.85     0  03:29      0.72    0.08    1.00
  YS02001926YS02001923 CONDUIT    167.71     0  02:48      0.83    0.24    0.86
  YS02001929YS02001926 CONDUIT    156.57     0  03:01      0.89    0.07    0.75
  YS02001920YS02001918 CONDUIT    207.40     0  03:30      0.70    0.20    1.00
  YS02001629YS02163301 CONDUIT    195.69     0  02:25      0.25    0.24    1.00
  YS02001619YS02001622 CONDUIT    291.28     0  03:01      0.61    0.43    1.00
  YS02001622YS02001625 CONDUIT    290.54     0  03:01      0.37    0.16    1.00
  YS02001625YS02001629 CONDUIT    192.21     0  02:17      0.25    0.09    1.00
  YS02163301YS02001633 CONDUIT    198.26     0  02:25      0.25    0.19    1.00
  YS02163601YS02164001 CONDUIT    396.68     0  02:35      0.51    0.35    1.00
  YS02164001YS02001641 CONDUIT    396.85     0  02:35      0.51    0.54    1.00
  YS02001641YS02001644 CONDUIT    396.97     0  02:35      0.51    1.28    1.00
  YS02001647YS02001649 CONDUIT    673.34     0  03:14      0.86    0.36    1.00
  YS02006553YS02006556 CONDUIT    704.56     0  03:31      0.90    0.60    1.00
  YS02006556YS02006558 CONDUIT    704.70     0  03:31      0.90    0.56    1.00
  YSB6556YSB1171       CONDUIT     25.76     0  03:03      0.09    0.03    0.70
  YS02001907YS02006553 CONDUIT    704.48     0  03:31      0.78    0.83    1.00
  YS02006558YS02006561 CONDUIT   1022.83     0  02:47      3.62    2.26    1.00
  YS02001633YS02163601 CONDUIT    396.43     0  02:35      0.50    0.42    1.00
  YS02001644YS02001647 CONDUIT    673.74     0  03:14      0.86    0.40    1.00
  YS02001745YS02001748 CONDUIT    538.83     0  02:27      1.47    0.21    0.96
  YS02001748YS02001751 CONDUIT    342.80     0  03:01      1.06    0.17    1.00
  YS02001751YS02001754 CONDUIT    342.95     0  03:01      0.92    0.17    1.00
  YS02001754YS02001757 CONDUIT    342.75     0  03:01      0.44    0.14    1.00
  YS02001882YS02001884 CONDUIT     14.19     0  04:01      0.13    0.02    1.00
  YS02001884YS02001887 CONDUIT     22.29     0  02:22      0.09    0.03    1.00
  YS02001890YS02001895 CONDUIT    495.18     0  03:01      0.63    0.23    1.00
  YS02001895YS02001898 CONDUIT    495.15     0  03:01      0.63    0.86    1.00
  YS02001898YS02001901 CONDUIT    495.84     0  03:01      0.63    0.32    1.00
  YS02001901YS02001904 CONDUIT    495.50     0  03:01      0.63    0.77    1.00
  YS02001904YS02001907 CONDUIT    496.07     0  03:01      0.63    0.17    1.00
  YS02001887YS02001890 CONDUIT    495.32     0  03:01      0.63    0.85    1.00
  YS02001652YS02001649 CONDUIT    375.74     0  03:00      0.63    0.19    1.00
  YS02001655YS02001652 CONDUIT    374.57     0  03:00      0.98    0.18    1.00
  YS02001658YS02001655 CONDUIT    373.03     0  03:00      1.22    0.16    1.00
  YS02001661YS02001658 CONDUIT    594.10     0  02:23      1.55    0.23    1.00
  YS02001664YS02001661 CONDUIT    621.94     0  02:43      1.43    0.20    0.76
  YSB1154YSB6556       CONDUIT     25.82     0  03:01      0.17    0.05    0.59
  YSB1174YSB1171       CONDUIT     20.15     0  03:01      0.07    0.03    0.70
  YSB1171HS02004479    CONDUIT     44.91     0  03:02      0.54    0.03    0.55
  HS02004881HS02006253 CONDUIT     84.16     0  03:01      2.10    0.02    0.53
  YS02001793JiankangQianchi CONDUIT   1023.95     0  02:47     16.64    0.08    1.00
  YS02001757CaochengTiaoxuchi CONDUIT   1577.12     0  02:35      2.02    0.69    1.00
  WSF200WS02003060     CONDUIT    829.46     0  03:05      1.85    0.18    0.42
  1                    CONDUIT   1223.05     0  03:08      3.51    0.43    0.46
  CC-Pump-1            PUMP       200.00     0  03:30              1.00
  CC-Pump-2            PUMP       200.00     0  06:10              1.00
  JK-Pump-1            PUMP       300.00     0  02:30              1.00
  JK-Pump-2            PUMP       683.00     0  02:40              1.00
  XR-Pump-1            PUMP        95.00     0  00:00              1.00
  XR-Pump-2            PUMP        95.00     0  00:00              1.00
  XR-Pump-3            PUMP        95.00     0  00:00              1.00
  XR-Pump-4            PUMP        95.00     0  00:00              1.00
  
  
  ***************************
  Flow Classification Summary
  ***************************
  
  -------------------------------------------------------------------------------------
                      Adjusted    ---------- Fraction of Time in Flow Class ---------- 
                       /Actual         Up    Down  Sub   Sup   Up    Down  Norm  Inlet 
  Conduit               Length    Dry  Dry   Dry   Crit  Crit  Crit  Crit  Ltd   Ctrl  
  -------------------------------------------------------------------------------------
  WS02003066WSF200        1.00   0.01  0.03  0.00  0.00  0.96  0.00  0.00  0.63  0.00
  WS02006287WS02006284    1.00   0.03  0.01  0.00  0.61  0.35  0.00  0.00  0.62  0.00
  WS02006284WS02006280    1.00   0.04  0.00  0.00  0.00  0.00  0.00  0.96  0.00  0.00
  WS02006280WS02006229    1.00   0.04  0.00  0.00  0.00  0.02  0.00  0.94  0.02  0.00
  WS02006229WS02006228    1.00   0.00  0.00  0.00  1.00  0.00  0.00  0.00  0.00  0.00
  WS02006256WS02006235    1.00   0.02  0.00  0.00  0.98  0.00  0.00  0.00  0.00  0.00
  WS02006253WS02006251    1.00   0.01  0.02  0.00  0.96  0.00  0.01  0.00  0.00  0.00
  WS02006252WS02006251    1.00   0.19  0.00  0.00  0.03  0.00  0.78  0.00  0.00  0.00
  WS02006251WS02006249    1.00   0.00  0.00  0.00  1.00  0.00  0.00  0.00  0.28  0.00
  WS02006249WS02006248    1.00   0.00  0.00  0.00  0.87  0.00  0.13  0.00  0.00  0.00
  WS02006248WS02006247    1.00   0.01  0.00  0.00  0.98  0.00  0.00  0.02  0.21  0.00
  WS02006247WS02006245    1.00   0.01  0.00  0.00  0.96  0.00  0.00  0.03  0.00  0.00
  WS02006245WS02006243    1.00   0.01  0.00  0.00  0.93  0.00  0.00  0.06  0.01  0.00
  WS02006243WS02006242    1.00   0.01  0.00  0.00  0.98  0.00  0.00  0.01  0.22  0.00
  WS02006242WS02006240    1.00   0.01  0.01  0.00  0.97  0.00  0.01  0.00  0.00  0.00
  WS02006240WS02006239    1.00   0.02  0.00  0.00  0.94  0.00  0.00  0.05  0.02  0.00
  WS02006239WS02006238    1.00   0.02  0.00  0.00  0.98  0.00  0.00  0.00  0.05  0.00
  WS02006238WS02006235    1.00   0.02  0.00  0.00  0.98  0.00  0.00  0.00  0.00  0.00
  WS02006235WS02006234    1.00   0.02  0.00  0.00  0.96  0.00  0.02  0.00  0.00  0.00
  WS02006234WS02006232    1.00   0.02  0.00  0.00  0.98  0.00  0.00  0.00  0.02  0.00
  WS02006232WS02006231    1.00   0.02  0.00  0.00  0.98  0.00  0.00  0.00  0.00  0.00
  WS02006231WS02006230    1.00   0.02  0.00  0.00  0.73  0.00  0.25  0.00  0.00  0.00
  WS02006230WS02006229    1.00   0.00  0.00  0.00  0.99  0.00  0.00  0.01  0.00  0.00
  WS02006228WS02006109    1.00   0.00  0.00  0.00  1.00  0.00  0.00  0.00  0.00  0.00
  WS02006116WS02004401    1.00   0.02  0.00  0.00  0.98  0.00  0.00  0.00  0.00  0.00
  WS02006115WS02006116    1.00   0.02  0.00  0.00  0.97  0.00  0.00  0.00  0.00  0.00
  WS02006113WS02006111    1.00   0.02  0.00  0.00  0.03  0.96  0.00  0.00  0.18  0.00
  WS02006112WS02006115    1.00   0.02  0.01  0.00  0.97  0.00  0.00  0.00  0.00  0.00
  WS02006111WS02006112    1.00   0.02  0.00  0.00  0.98  0.00  0.00  0.00  0.86  0.00
  WS02006110WS02006113    1.00   0.00  0.01  0.00  0.98  0.00  0.00  0.00  0.00  0.00
  WS02006109WS02006110    1.00   0.00  0.00  0.00  0.99  0.00  0.00  0.00  0.00  0.00
  WS02004411WS02004412    1.00   0.03  0.00  0.00  0.97  0.00  0.00  0.00  0.00  0.00
  WS02004401WS02004402    1.00   0.02  0.00  0.00  0.98  0.00  0.00  0.00  0.00  0.00
  WS02004413WS02003067    1.00   0.03  0.00  0.00  0.00  0.00  0.96  0.00  0.00  0.00
  WS02004412WS02004413    1.00   0.03  0.00  0.00  0.97  0.00  0.00  0.00  0.00  0.00
  WS02004410WS02004411    1.00   0.03  0.00  0.00  0.97  0.00  0.00  0.00  0.00  0.00
  WS02004409WS02004410    1.00   0.03  0.00  0.00  0.97  0.00  0.00  0.00  0.00  0.00
  WS02004407WS02004409    1.00   0.03  0.00  0.00  0.97  0.00  0.00  0.00  0.89  0.00
  WS02004406WS02004407    1.00   0.00  0.03  0.00  0.97  0.00  0.00  0.00  0.00  0.00
  WS02004405WS02004406    1.00   0.00  0.00  0.00  1.00  0.00  0.00  0.00  0.04  0.00
  WS02004404WS02004405    1.00   0.00  0.00  0.00  1.00  0.00  0.00  0.00  0.00  0.00
  WS02004403WS02004404    1.00   0.00  0.03  0.00  0.97  0.00  0.00  0.00  0.00  0.00
  WS02004402WS02004403    1.00   0.03  0.00  0.00  0.97  0.00  0.00  0.00  0.00  0.00
  WS02004139WS02001211    1.00   0.00  0.00  0.00  1.00  0.00  0.00  0.00  0.00  0.00
  WS02004138WS02004139    1.00   0.00  0.00  0.00  1.00  0.00  0.00  0.00  1.00  0.00
  WS02003067WS02003066    1.00   0.04  0.00  0.00  0.96  0.00  0.00  0.00  0.00  0.00
  WS02001213WS02003059    1.00   0.00  0.00  0.00  1.00  0.00  0.00  0.00  0.00  0.00
  WS02001212WS02001213    1.00   0.00  0.00  0.00  0.92  0.00  0.08  0.00  0.00  0.00
  WS02001211WS02001212    1.00   0.00  0.00  0.00  1.00  0.00  0.00  0.00  0.00  0.00
  WS02003072WS02003073    1.00   0.00  0.00  0.00  0.00  0.00  0.00  1.00  0.00  0.00
  WS02003069WS02003072    1.00   0.00  0.00  0.00  1.00  0.00  0.00  0.00  0.10  0.00
  WS02003060WS02003069    1.00   0.00  0.00  0.00  0.99  0.01  0.00  0.00  0.08  0.00
  WS02003059WS02003060    1.00   0.00  0.00  0.00  1.00  0.00  0.00  0.00  0.00  0.00
  HS02004901HS02004770    1.00   0.04  0.00  0.00  0.96  0.00  0.00  0.00  0.00  0.00
  HS02004876HS02004881    1.00   0.00  0.00  0.00  0.92  0.08  0.00  0.00  0.00  0.00
  HS02004870HS02004876    1.00   0.00  0.00  0.00  1.00  0.00  0.00  0.00  0.95  0.00
  HS02004842HS02004848    1.00   0.00  0.04  0.00  0.96  0.00  0.00  0.00  0.55  0.00
  HS02004837HS02004842    1.00   0.00  0.00  0.00  1.00  0.00  0.00  0.00  0.11  0.00
  HS02004830HS02004837    1.00   0.00  0.00  0.00  1.00  0.00  0.00  0.00  0.99  0.00
  HS02004824HS02004830    1.00   0.00  0.00  0.00  1.00  0.00  0.00  0.00  0.00  0.00
  HS02004817HS02004824    1.00   0.00  0.00  0.00  1.00  0.00  0.00  0.00  1.00  0.00
  HS02004770HS02004777    1.00   0.00  0.04  0.00  0.96  0.00  0.00  0.00  0.02  0.00
  HS02004799HS02004480    1.00   0.00  0.01  0.00  0.96  0.00  0.04  0.00  0.00  0.00
  HS02004792HS02004799    1.00   0.00  0.00  0.00  1.00  0.00  0.00  0.00  0.98  0.00
  HS02004788HS02004792    1.00   0.00  0.00  0.00  1.00  0.00  0.00  0.00  0.98  0.00
  HS02004785HS02004788    1.00   0.00  0.00  0.00  1.00  0.00  0.00  0.00  0.00  0.00
  HS02004777HS02004785    1.00   0.00  0.00  0.00  1.00  0.00  0.00  0.00  0.12  0.00
  HS02004480HS02004478    1.00   0.04  0.00  0.00  0.69  0.00  0.00  0.27  0.00  0.00
  HS02004479HS02004480    1.00   0.01  0.00  0.00  0.99  0.00  0.00  0.00  0.11  0.00
  HS02004862HS02004870    1.00   0.00  0.00  0.00  1.00  0.00  0.00  0.00  0.03  0.00
  HS02004848HS02004852    1.00   0.04  0.00  0.00  0.96  0.00  0.00  0.00  0.62  0.00
  HS02004856HS02004862    1.00   0.00  0.05  0.00  0.95  0.00  0.00  0.00  0.83  0.00
  HS02004852HS02004856    1.00   0.04  0.00  0.00  0.96  0.00  0.00  0.00  0.85  0.00
  HS02004802HS02004478    1.00   0.04  0.00  0.00  0.96  0.00  0.00  0.00  0.02  0.00
  HS02004478WS02006287    1.00   0.05  0.00  0.00  0.76  0.19  0.00  0.00  0.64  0.00
  HS02004817HS02004807    1.00   0.00  0.04  0.00  0.96  0.00  0.00  0.00  0.01  0.00
  HS02004807HS02004802    1.00   0.04  0.00  0.00  0.96  0.00  0.00  0.00  0.00  0.00
  YS02001759YS02001757    1.00   0.00  0.00  0.00  1.00  0.00  0.00  0.00  0.16  0.00
  YS02001762YS02001759    1.00   0.00  0.00  0.00  1.00  0.00  0.00  0.00  0.03  0.00
  YS02001765YS02001762    1.00   0.00  0.00  0.00  1.00  0.00  0.00  0.00  0.13  0.00
  YS02001770YS02001767    1.00   0.00  0.00  0.00  1.00  0.00  0.00  0.00  0.00  0.00
  YS02001774YS02001770    1.00   0.00  0.04  0.00  0.96  0.00  0.00  0.00  0.02  0.00
  YS02001779YS02001774    1.00   0.00  0.00  0.00  1.00  0.00  0.00  0.00  0.18  0.00
  YS02001649YS02001757    1.00   0.00  0.00  0.00  1.00  0.00  0.00  0.00  0.16  0.00
  YS02001767YS02001765    1.00   0.00  0.00  0.00  1.00  0.00  0.00  0.00  0.00  0.00
  YS02006561YS02001783    1.00   0.05  0.00  0.00  0.28  0.66  0.00  0.00  0.47  0.00
  YS02001783YS02001784    1.00   0.00  0.05  0.00  0.95  0.00  0.00  0.00  0.00  0.00
  YS02001784YS02001785    1.00   0.00  0.00  0.00  1.00  0.00  0.00  0.00  0.17  0.00
  YS02001788YS02001790    1.00   0.00  0.00  0.00  0.34  0.66  0.00  0.00  0.41  0.00
  YS02001790YS02001791    1.00   0.00  0.00  0.00  0.30  0.70  0.00  0.00  0.48  0.00
  YS02001791YS02001793    1.00   0.00  0.00  0.00  0.33  0.67  0.00  0.00  0.02  0.00
  YS02001910YS02001907    1.00   0.00  0.00  0.00  0.99  0.00  0.00  0.01  0.12  0.00
  YS02001786YS02001788    1.00   0.00  0.00  0.00  0.33  0.67  0.00  0.00  0.00  0.00
  YS02001915YS02001910    1.00   0.00  0.00  0.00  0.99  0.01  0.00  0.00  0.15  0.00
  YS02001918YS02001915    1.00   0.00  0.00  0.00  0.99  0.00  0.00  0.00  0.55  0.00
  YS02001923YS02001920    1.00   0.00  0.00  0.00  1.00  0.00  0.00  0.00  0.84  0.00
  YS02001926YS02001923    1.00   0.00  0.02  0.00  0.14  0.00  0.84  0.00  0.00  0.00
  YS02001929YS02001926    1.00   0.00  0.04  0.00  0.96  0.00  0.00  0.00  0.76  0.00
  YS02001920YS02001918    1.00   0.00  0.00  0.00  1.00  0.00  0.00  0.00  0.00  0.00
  YS02001629YS02163301    1.00   0.04  0.00  0.00  0.95  0.00  0.00  0.00  0.00  0.00
  YS02001619YS02001622    1.00   0.04  0.00  0.00  0.96  0.00  0.00  0.00  0.00  0.00
  YS02001622YS02001625    1.00   0.04  0.00  0.00  0.96  0.00  0.00  0.00  0.04  0.00
  YS02001625YS02001629    1.00   0.04  0.01  0.00  0.93  0.00  0.02  0.00  0.00  0.00
  YS02163301YS02001633    1.00   0.00  0.04  0.00  0.96  0.00  0.00  0.00  0.00  0.00
  YS02163601YS02164001    1.00   0.00  0.02  0.00  0.98  0.00  0.00  0.00  0.00  0.00
  YS02164001YS02001641    1.00   0.00  0.02  0.00  0.98  0.00  0.00  0.00  0.06  0.00
  YS02001641YS02001644    1.00   0.00  0.00  0.00  1.00  0.00  0.00  0.00  0.00  0.00
  YS02001647YS02001649    1.00   0.00  0.05  0.00  0.95  0.00  0.00  0.00  0.01  0.00
  YS02006553YS02006556    1.00   0.00  0.00  0.00  1.00  0.00  0.00  0.00  0.03  0.00
  YS02006556YS02006558    1.00   0.00  0.00  0.00  1.00  0.00  0.00  0.00  0.00  0.00
  YSB6556YSB1171          1.00   0.01  0.03  0.00  0.96  0.00  0.00  0.00  0.00  0.00
  YS02001907YS02006553    1.00   0.00  0.01  0.00  0.99  0.00  0.00  0.00  0.00  0.00
  YS02006558YS02006561    1.00   0.05  0.00  0.00  0.15  0.80  0.00  0.00  0.50  0.00
  YS02001633YS02163601    1.00   0.00  0.00  0.00  1.00  0.00  0.00  0.00  0.15  0.00
  YS02001644YS02001647    1.00   0.00  0.05  0.00  0.95  0.00  0.00  0.00  0.00  0.00
  YS02001745YS02001748    1.00   0.00  0.00  0.00  0.91  0.01  0.00  0.09  0.04  0.00
  YS02001748YS02001751    1.00   0.00  0.00  0.00  0.97  0.03  0.00  0.00  0.15  0.00
  YS02001751YS02001754    1.00   0.00  0.00  0.00  0.94  0.00  0.00  0.06  0.02  0.00
  YS02001754YS02001757    1.00   0.00  0.00  0.00  1.00  0.00  0.00  0.00  0.18  0.00
  YS02001882YS02001884    1.00   0.04  0.00  0.00  0.96  0.00  0.00  0.00  0.00  0.00
  YS02001884YS02001887    1.00   0.01  0.02  0.00  0.97  0.00  0.00  0.00  0.00  0.00
  YS02001890YS02001895    1.00   0.00  0.04  0.00  0.95  0.00  0.00  0.00  0.00  0.00
  YS02001895YS02001898    1.00   0.05  0.00  0.00  0.94  0.00  0.01  0.00  0.00  0.00
  YS02001898YS02001901    1.00   0.05  0.00  0.00  0.95  0.00  0.00  0.00  0.01  0.00
  YS02001901YS02001904    1.00   0.05  0.00  0.00  0.95  0.00  0.00  0.00  0.00  0.00
  YS02001904YS02001907    1.00   0.00  0.05  0.00  0.95  0.00  0.00  0.00  0.00  0.00
  YS02001887YS02001890    1.00   0.00  0.00  0.00  0.99  0.00  0.01  0.00  0.00  0.00
  YS02001652YS02001649    1.00   0.00  0.00  0.00  1.00  0.00  0.00  0.00  0.16  0.00
  YS02001655YS02001652    1.00   0.00  0.00  0.00  0.94  0.00  0.00  0.06  0.02  0.00
  YS02001658YS02001655    1.00   0.00  0.04  0.00  0.93  0.03  0.00  0.00  0.08  0.00
  YS02001661YS02001658    1.00   0.04  0.00  0.00  0.91  0.05  0.00  0.00  0.08  0.00
  YS02001664YS02001661    1.00   0.04  0.00  0.00  0.92  0.05  0.00  0.00  0.19  0.00
  YSB1154YSB6556          1.00   0.04  0.00  0.00  0.96  0.00  0.00  0.00  0.01  0.00
  YSB1174YSB1171          1.00   0.01  0.01  0.00  0.97  0.00  0.00  0.00  0.00  0.00
  YSB1171HS02004479       1.00   0.01  0.00  0.00  0.99  0.00  0.00  0.00  0.10  0.00
  HS02004881HS02006253    1.00   0.01  0.00  0.00  0.59  0.03  0.00  0.37  0.40  0.00
  YS02001793JiankangQianchi    1.00   0.00  0.00  0.00  0.65  0.35  0.00  0.00  0.46  0.00
  YS02001757CaochengTiaoxuchi    1.00   0.00  0.07  0.00  0.93  0.00  0.00  0.00  0.00  0.00
  WSF200WS02003060        1.00   0.00  0.01  0.00  0.99  0.00  0.00  0.00  0.46  0.00
  1                       1.00   0.00  0.00  0.00  0.00  1.00  0.00  0.00  0.52  0.00
  
  
  *************************
  Conduit Surcharge Summary
  *************************
  
  ----------------------------------------------------------------------------
                                                           Hours        Hours 
                         --------- Hours Full --------   Above Full   Capacity
  Conduit                Both Ends  Upstream  Dnstream   Normal Flow   Limited
  ----------------------------------------------------------------------------
  WS02006229WS02006228        3.09      3.25      3.09      4.46         3.09
  WS02006256WS02006235        5.55      5.55      6.97      4.33         0.01
  WS02006253WS02006251        0.63      0.63      0.71      0.01         0.05
  WS02006252WS02006251        0.57      0.57      1.11      0.86         0.01
  WS02006251WS02006249        0.65      0.66      0.74      0.31         0.10
  WS02006249WS02006248        0.63      0.63      0.74      2.10         0.01
  WS02006248WS02006247        0.73      0.73      0.90      0.01         0.01
  WS02006247WS02006245        0.87      0.95      0.87      2.86         0.83
  WS02006245WS02006243        0.91      0.92      1.05      0.22         0.07
  WS02006243WS02006242        1.13      1.13      1.88      0.01         0.01
  WS02006242WS02006240        1.64      1.64      2.10      0.77         0.01
  WS02006240WS02006239        1.70      1.74      1.91      0.27         0.06
  WS02006239WS02006238        2.22      2.27      2.46      0.29         0.14
  WS02006238WS02006235        2.40      2.40      2.75      0.01         0.02
  WS02006235WS02006234        2.01      2.01      2.32      5.41         0.01
[...]
  YS02001765YS02001762        5.84      5.84      5.87      0.01         0.01
  YS02001770YS02001767        5.81      5.81      5.81      0.19         0.72
  YS02001774YS02001770        5.80      5.80      5.86      0.01         0.01
  YS02001779YS02001774        5.67      5.67      5.86      0.01         0.01
  YS02001649YS02001757        5.88      5.88      5.98      0.01         0.01
  YS02001767YS02001765        5.81      5.81      5.84      0.01         0.01
  YS02006561YS02001783        0.74      0.74      1.29      0.01         0.01
  YS02001783YS02001784        1.27      1.29      1.27      1.30         1.13
  YS02001784YS02001785        1.22      1.27      1.22      2.38         1.22
  YS02001788YS02001790        1.17      1.17      1.92      0.01         0.01
  YS02001790YS02001791        1.92      1.92      2.01      0.93         0.91
  YS02001791YS02001793        2.01      2.01      2.35      0.01         0.01
  YS02001910YS02001907        1.12      1.12      1.78      0.01         0.01
  YS02001786YS02001788        1.16      1.22      1.17      1.95         1.16
  YS02001915YS02001910        0.93      0.93      1.12      0.01         0.01
  YS02001918YS02001915        0.70      0.70      0.93      0.01         0.01
  YS02001923YS02001920        0.53      0.53      0.74      0.01         0.01
  YS02001920YS02001918        0.70      0.70      0.74      0.01         0.01
  YS02001629YS02163301        5.80      5.80      5.81      0.01         0.01
  YS02001619YS02001622        5.47      5.47      5.51      0.01         0.01
  YS02001622YS02001625        5.51      5.51      5.76      0.01         0.01
  YS02001625YS02001629        5.49      5.49      5.76      0.01         0.01
  YS02163301YS02001633        5.81      5.81      5.84      0.01         0.01
  YS02163601YS02164001        5.83      5.83      5.87      0.01         0.01
  YS02164001YS02001641        5.83      5.83      5.85      0.01         0.02
  YS02001641YS02001644        5.85      5.85      5.85      1.53         1.71
  YS02001647YS02001649        5.75      5.75      5.88      0.01         0.01
  YS02006553YS02006556        1.36      1.36      1.87      0.01         0.01
  YS02006556YS02006558        1.55      1.55      1.94      0.01         0.01
  YS02001907YS02006553        2.40      2.40      2.66      0.01         0.01
  YS02006558YS02006561        0.94      1.32      0.94      2.24         0.94
  YS02001633YS02163601        5.83      5.83      5.87      0.01         0.01
  YS02001644YS02001647        5.75      5.75      5.85      0.01         0.01
  YS02001745YS02001748        0.01      0.01      5.30      0.01         0.01
  YS02001748YS02001751        5.35      5.35      5.49      0.01         0.01
  YS02001751YS02001754        5.49      5.49      5.69      0.01         0.01
  YS02001754YS02001757        5.74      5.74      5.98      0.01         0.01
  YS02001882YS02001884        0.94      0.94      0.97      0.01         0.01
  YS02001884YS02001887        1.01      1.01      1.04      0.01         0.01
  YS02001890YS02001895        0.91      0.91      1.14      0.01         0.01
  YS02001895YS02001898        0.90      0.90      0.91      0.01         0.01
  YS02001898YS02001901        0.92      0.92      1.01      0.01         0.01
  YS02001901YS02001904        0.98      0.98      1.01      0.01         0.01
  YS02001904YS02001907        0.98      0.98      1.89      0.01         0.01
  YS02001887YS02001890        1.07      1.07      1.10      0.01         0.01
  YS02001652YS02001649        5.76      5.76      5.88      0.01         0.01
  YS02001655YS02001652        5.50      5.50      5.73      0.01         0.01
  YS02001658YS02001655        5.33      5.33      5.50      0.01         0.01
  YS02001661YS02001658        0.15      0.15      5.33      0.01         0.01
  YS02001664YS02001661        0.01      0.01      1.01      0.01         0.01
  HS02004881HS02006253        0.01      0.01      0.13      0.01         0.01
  YS02001793JiankangQianchi        2.27      2.27      4.64      0.01         0.01
  YS02001757CaochengTiaoxuchi        5.21      5.21      5.98      0.01         0.01
  
  
  ***************
  Pumping Summary
  ***************
  
  ---------------------------------------------------------------------------------------------------------
                                                  Min       Avg       Max     Total     Power    % Time Off
                        Percent   Number of      Flow      Flow      Flow    Volume     Usage    Pump Curve
  Pump                 Utilized   Start-Ups       LPS       LPS       LPS  10^6 ltr     Kw-hr    Low   High
  ---------------------------------------------------------------------------------------------------------
  CC-Pump-1               51.04           5      0.00    128.68    200.00     1.740      1.39    0.0    0.0
  CC-Pump-2               27.66           3      0.00    108.99    200.00     0.840      0.86    0.0    0.0
  JK-Pump-1               59.57           5      0.00    223.67    300.00     3.605     53.99    0.0    0.0
  JK-Pump-2               51.05           4      0.00    419.64    683.00     6.011     82.26    0.0   96.8
  XR-Pump-1              100.00           1      0.00     93.94     95.00     2.622     26.45    0.0    0.0
  XR-Pump-2               95.73           3      0.00     93.23     95.00     2.451     22.86    0.0    0.0
  XR-Pump-3               95.73           3      0.00     93.23     95.00     2.451     22.86    0.0    0.0
  XR-Pump-4               95.73           3      0.00     93.23     95.00     2.451     22.86    0.0    0.0
  
  
  ***************************
  Link Pollutant Load Summary
  ***************************
  
  ------------------------------------------------------------------------------------------
                                 COD            SS            TN            TP         NH4-N
  Link                            kg            kg            kg            kg            kg
  ------------------------------------------------------------------------------------------
  WS02003066WSF200           723.667      1332.596        19.689         1.755        10.455
  WS02006287WS02006284       268.046       498.184         9.346         0.943         5.214
  WS02006284WS02006280       268.529       498.962         9.393         0.949         5.243
  WS02006280WS02006229       268.495       498.898         9.391         0.948         5.242
  WS02006229WS02006228       725.980      1336.834        19.369         1.704        10.234
  WS02006256WS02006235       209.631       384.089         4.639         0.361         2.348
  WS02006253WS02006251        56.309       107.601         1.337         0.105         0.677
  WS02006252WS02006251       214.540       387.423         4.529         0.329         2.232
  WS02006251WS02006249       258.748       473.399         5.598         0.415         2.775
  WS02006249WS02006248       256.650       469.501         5.556         0.412         2.755
  WS02006248WS02006247       256.608       469.459         5.558         0.412         2.757
  WS02006247WS02006245       256.084       468.517         5.548         0.411         2.752
  WS02006245WS02006243       255.362       467.304         5.528         0.410         2.741
  WS02006243WS02006242       255.345       467.255         5.535         0.411         2.746
  WS02006242WS02006240       255.474       467.457         5.529         0.410         2.742
  WS02006240WS02006239       256.577       469.330         5.561         0.412         2.759
  WS02006239WS02006238       258.881       473.194         5.636         0.420         2.800
  WS02006238WS02006235       260.684       476.203         5.690         0.424         2.829
  WS02006235WS02006234       461.598       845.201        10.088         0.765         5.049
  WS02006234WS02006232       461.074       844.238        10.080         0.765         5.046
  WS02006232WS02006231       460.167       842.620        10.059         0.763         5.036
  WS02006231WS02006230       459.422       841.293        10.044         0.762         5.028
  WS02006230WS02006229       458.487       839.680        10.017         0.760         5.014
  WS02006228WS02006109       724.900      1334.936        19.333         1.701        10.213
  WS02006116WS02004401       734.624      1352.033        19.981         1.780        10.608
  WS02006115WS02006116       735.992      1354.422        20.028         1.785        10.635
  WS02006113WS02006111       730.148      1342.915        20.004         1.787        10.639
  WS02006112WS02006115       737.260      1356.605        20.084         1.791        10.667
  WS02006111WS02006112       729.524      1341.834        19.980         1.785        10.626
  WS02006110WS02006113       730.773      1343.994        20.034         1.790        10.657
  WS02006109WS02006110       732.289      1346.586        20.113         1.799        10.704
  WS02004411WS02004412       726.394      1337.380        19.789         1.765        10.511
  WS02004401WS02004402       733.283      1349.703        19.928         1.775        10.578
  WS02004413WS02003067       724.228      1333.612        19.703         1.756        10.462
  WS02004412WS02004413       725.397      1335.624        19.758         1.762        10.494
  WS02004410WS02004411       727.170      1338.753        19.811         1.767        10.523
  WS02004409WS02004410       727.946      1340.118        19.837         1.770        10.537
  WS02004407WS02004409       728.573      1341.237        19.851         1.771        10.545
  WS02004406WS02004407       728.752      1341.575        19.849         1.770        10.543
  WS02004405WS02004406       730.344      1344.319        19.926         1.779        10.588
  WS02004404WS02004405       731.346      1346.152        19.927         1.777        10.584
  WS02004403WS02004404       730.955      1345.637        19.844         1.766        10.531
  WS02004402WS02004403       732.035      1347.520        19.885         1.771        10.555
  WS02004139WS02001211      1405.334      2315.207       116.883        14.314        72.181
  WS02004138WS02004139      1411.672      2325.680       117.392        14.376        72.495
  WS02003067WS02003066       723.833      1332.890        19.696         1.756        10.459
  WS02001213WS02003059      1438.682      2367.854       120.294        14.744        74.323
  WS02001212WS02001213      1447.571      2382.461       121.036        14.834        74.781
  WS02001211WS02001212      1449.665      2385.862       121.220        14.857        74.896
  WS02003072WS02003073      2263.039      3860.690       149.931        17.747        91.007
  WS02003069WS02003072      2267.420      3867.833       150.300        17.792        91.236
  WS02003060WS02003069      2270.177      3872.487       150.486        17.814        91.349
  WS02003059WS02003060      1435.831      2363.089       120.082        14.718        74.193
  HS02004901HS02004770        10.270        19.477         0.195         0.015         0.091
  HS02004876HS02004881        37.316        72.576         0.843         0.062         0.416
  HS02004870HS02004876        28.159        54.625         0.678         0.051         0.338
  HS02004842HS02004848         5.467        10.276         0.115         0.008         0.053
  HS02004837HS02004842        10.074        17.584         0.584         0.067         0.347
  HS02004830HS02004837        65.639       112.703         4.557         0.546         2.785
  HS02004824HS02004830        66.389       113.906         4.628         0.555         2.830
  HS02004817HS02004824        88.206       156.974         5.083         0.584         3.051
  HS02004770HS02004777        39.294        75.463         0.819         0.055         0.377
  HS02004799HS02004480       131.406       245.362         3.680         0.335         1.933
  HS02004792HS02004799       119.084       220.657         3.497         0.327         1.853
  HS02004788HS02004792        68.396       126.856         2.388         0.235         1.309
  HS02004785HS02004788        40.732        77.759         0.969         0.074         0.471
  HS02004777HS02004785        40.059        76.666         0.909         0.067         0.434
  HS02004480HS02004478       165.945       312.582         4.243         0.374         2.195
  HS02004479HS02004480        38.146        72.976         0.884         0.079         0.462
  HS02004862HS02004870        21.015        40.115         0.536         0.043         0.270
  HS02004848HS02004852         8.057        15.279         0.167         0.011         0.077
  HS02004856HS02004862        14.071        27.339         0.284         0.019         0.133
  HS02004852HS02004856         8.064        15.290         0.167         0.011         0.077
  HS02004802HS02004478       102.882       186.880         5.162         0.575         3.055
  HS02004478WS02006287       268.245       498.520         9.363         0.945         5.224
  HS02004817HS02004807        86.886       154.857         4.956         0.568         2.972
  HS02004807HS02004802       103.108       187.233         5.194         0.580         3.075
  YS02001759YS02001757       303.973       551.612         6.120         0.425         2.994
  YS02001762YS02001759       160.472       293.621         3.396         0.240         1.681
  YS02001765YS02001762       161.007       295.179         3.427         0.243         1.699
  YS02001770YS02001767       161.518       297.697         3.262         0.217         1.586
  YS02001774YS02001770       210.194       401.674         4.084         0.270         1.974
  YS02001779YS02001774       209.659       400.596         4.179         0.285         2.040
  YS02001649YS02001757       362.585       648.123         7.334         0.504         3.529
  YS02001767YS02001765       161.965       297.424         3.461         0.245         1.718
  YS02006561YS02001783       940.191      1724.645        19.897         1.492         9.927
  YS02001783YS02001784       940.104      1724.518        19.893         1.492         9.925
  YS02001784YS02001785       947.387      1736.171        20.605         1.581        10.370
  YS02001788YS02001790       948.008      1737.181        20.679         1.590        10.417
  YS02001790YS02001791       949.029      1738.812        20.784         1.604        10.483
  YS02001791YS02001793       949.005      1738.779        20.781         1.603        10.481
  YS02001910YS02001907       330.074       599.145         8.216         0.640         4.243
  YS02001786YS02001788       947.569      1736.462        20.633         1.585        10.388
  YS02001915YS02001910       330.162       599.280         8.173         0.634         4.214
  YS02001918YS02001915       157.321       273.059         4.589         0.428         2.499
  YS02001923YS02001920       136.669       239.817         2.623         0.182         1.272
  YS02001926YS02001923       136.395       239.402         2.586         0.178         1.248
  YS02001929YS02001926       136.170       239.028         2.555         0.174         1.228
  YS02001920YS02001918       156.567       271.645         4.543         0.422         2.472
  YS02001629YS02163301       103.531       183.446         2.171         0.140         1.012
  YS02001619YS02001622       146.402       262.945         3.031         0.197         1.414
  YS02001622YS02001625       145.252       261.129         3.003         0.195         1.401
  YS02001625YS02001629       104.619       185.246         2.195         0.142         1.023
  YS02163301YS02001633       103.265       182.999         2.164         0.140         1.010
  YS02163601YS02164001       362.075       646.264         7.116         0.502         3.404
  YS02164001YS02001641       361.599       645.465         7.097         0.501         3.393
  YS02001641YS02001644       361.830       645.780         7.096         0.500         3.392
  YS02001647YS02001649       420.253       758.540         8.415         0.580         4.029
  YS02006553YS02006556       661.720      1208.320        14.299         1.099         7.209
  YS02006556YS02006558       661.652      1208.182        14.267         1.094         7.187
  YSB6556YSB1171              21.954        42.200         0.451         0.038         0.229
  YS02001907YS02006553       661.797      1208.486        14.312         1.100         7.217
  YS02006558YS02006561       940.172      1724.604        19.896         1.492         9.926
  YS02001633YS02163601       362.762       647.328         7.096         0.498         3.387
  YS02001644YS02001647       425.062       767.325         8.490         0.586         4.063
  YS02001745YS02001748       209.539       385.598         4.682         0.324         2.332
  YS02001748YS02001751       208.131       382.787         4.771         0.339         2.396
  YS02001751YS02001754       207.157       381.193         4.752         0.339         2.388
  YS02001754YS02001757       207.929       382.359         4.916         0.361         2.494
  YS02001882YS02001884         2.550         4.386         0.052         0.004         0.026
  YS02001884YS02001887         6.959        12.306         0.136         0.011         0.067
  YS02001890YS02001895       389.480       720.677         7.189         0.539         3.508
  YS02001895YS02001898       389.320       720.464         7.183         0.539         3.505
  YS02001898YS02001901       389.124       720.137         7.179         0.539         3.503
  YS02001901YS02001904       388.972       719.919         7.186         0.540         3.508
  YS02001904YS02001907       389.208       720.289         7.239         0.547         3.542
  YS02001887YS02001890       390.294       721.903         7.244         0.546         3.542
  YS02001652YS02001649       156.844       286.526         3.202         0.230         1.501
  YS02001655YS02001652       157.449       287.507         3.219         0.231         1.508
  YS02001658YS02001655       156.979       286.766         3.132         0.220         1.452
  YS02001661YS02001658       160.955       293.891         3.213         0.225         1.489
  YS02001664YS02001661       176.893       320.567         3.564         0.249         1.651
  YSB1154YSB6556              21.534        41.531         0.402         0.032         0.198
  YSB1174YSB1171              14.653        28.289         0.298         0.024         0.149
  YSB1171HS02004479           38.105        72.910         0.887         0.079         0.465
  HS02004881HS02006253        42.167        82.272         0.930         0.068         0.458
  YS02001793JiankangQianchi       948.711      1738.288        20.738         1.598        10.454
  YS02001757CaochengTiaoxuchi       523.311       936.618        11.143         0.804         5.487
  WSF200WS02003060           723.462      1332.205        19.690         1.756        10.456
  1                         2267.130      3866.601       150.504        17.821        91.373
  CC-Pump-1                  145.311       262.533         3.065         0.223         1.510
  CC-Pump-2                   69.157       124.775         1.459         0.106         0.718
  JK-Pump-1                  248.923       461.337         5.264         0.399         2.633
  JK-Pump-2                  498.307       926.802        10.522         0.799         5.264
  XR-Pump-1                  381.792       627.655        32.104         3.938        19.845
  XR-Pump-2                  344.513       568.008        28.532         3.492        17.614
  XR-Pump-3                  344.513       568.008        28.532         3.492        17.614
  XR-Pump-4                  344.513       568.008        28.532         3.492        17.614
  

  Analysis begun on:  Wed Jun  2 21:52:41 2021
  Analysis ended on:  Wed Jun  2 21:52:45 2021
  Total elapsed time: 00:00:04