
  EPA STORM WATER MANAGEMENT MODEL - VERSION 5.1 (Build 5.3.0.dev0)
  --------------------------------------------------------------

  WARNING 09: time series interval greater than recording interval for Rain Gage RG1
  WARNING 09: time series interval greater than recording interval for Rain Gage RG2
  WARNING 09: time series interval greater than recording interval for Rain Gage RG3
  WARNING 09: time series interval greater than recording interval for Rain Gage RG4
  
  *********************************************************
  NOTE: The summary statistics displayed in this report are
  based on results found at every computational time step,  
  not just on results from each reporting time step.
  *********************************************************
  
  ****************
  Analysis Options
  ****************
  Flow Units ............... CMS
  Process Models:
    Rainfall/Runoff ........ YES
    RDII ................... NO
    Snowmelt ............... NO
    Groundwater ............ NO
    Flow Routing ........... YES
    Ponding Allowed ........ YES
    Water Quality .......... NO
  Infiltration Method ...... HORTON
  Flow Routing Method ...... DYNWAVE
  Surcharge Method ......... EXTRAN
  Starting Date ............ 08/28/2015 00:00:00
  Ending Date .............. 08/28/2015 23:40:00
  Antecedent Dry Days ...... 0.0
  Report Time Step ......... 00:01:00
  Wet Time Step ............ 00:01:00
  Dry Time Step ............ 00:01:00
  Routing Time Step ........ 5.00 sec
  Variable Time Step ....... YES
  Maximum Trials ........... 8
  Number of Threads ........ 1
  Head Tolerance ........... 0.001500 m
  
  
  **************************        Volume         Depth
  Runoff Quantity Continuity     hectare-m            mm
  **************************     ---------       -------
  Total Precipitation ......         2.516        13.964
  Evaporation Loss .........         0.000         0.000
  Infiltration Loss ........         0.000         0.000
  Surface Runoff ...........         2.486        13.794
  Final Storage ............         0.037         0.204
  Continuity Error (%) .....        -0.241
  
  
  **************************        Volume        Volume
  Flow Routing Continuity        hectare-m      10^6 ltr
  **************************     ---------     ---------
  Dry Weather Inflow .......         0.758         7.576
  Wet Weather Inflow .......         2.486        24.857
  Groundwater Inflow .......         0.000         0.000
  RDII Inflow ..............         0.000         0.000
  External Inflow ..........         0.000         0.000
  External Outflow .........         0.819         8.194
  Flooding Loss ............         1.364        13.637
  Evaporation Loss .........         0.000         0.000
  Exfiltration Loss ........         0.000         0.000
  Initial Stored Volume ....         0.000         0.000
  Final Stored Volume ......         0.812         8.116
  Continuity Error (%) .....         7.664
  
  
  *************************
  Highest Continuity Errors
  *************************
  Node T2 (25.41%)
  Node T4 (15.57%)
  Node T5 (14.27%)
  Node T3 (12.21%)
  Node T6 (11.89%)
  
  
  ***************************
  Time-Step Critical Elements
  ***************************
  None
  
  
  ********************************
  Highest Flow Instability Indexes
  ********************************
  All links are stable.
  
  
  *************************
  Routing Time Step Summary
  *************************
  Minimum Time Step           :     0.38 sec
  Average Time Step           :     5.00 sec
  Maximum Time Step           :     5.00 sec
  Percent in Steady State     :     0.00
  Average Iterations per Step :     2.15
  Percent Not Converging      :     0.62
  
  
  ***************************
  Subcatchment Runoff Summary
  ***************************
  
  ------------------------------------------------------------------------------------------------------------------------------
                            Total      Total      Total      Total     Imperv       Perv      Total       Total     Peak  Runoff
                           Precip      Runon       Evap      Infil     Runoff     Runoff     Runoff      Runoff   Runoff   Coeff
  Subcatchment                 mm         mm         mm         mm         mm         mm         mm    10^6 ltr      CMS
  ------------------------------------------------------------------------------------------------------------------------------
  SC01                      10.65       0.00       0.00       0.00      10.55       0.00      10.55        3.48     1.14   0.990
  SC02                      12.08       0.00       0.00       0.00      11.98       0.00      11.98        2.72     1.36   0.991
  SC03                      22.28       0.00       0.00       0.00      22.32       0.00      22.32        4.02     3.51   1.002
  SC04                      12.08       0.00       0.00       0.00      11.77       0.00      11.77        0.81     0.26   0.975
  SC05                      10.65       0.00       0.00       0.00      10.54       0.00      10.54        1.64     0.53   0.989
  SC06                      10.98       0.00       0.00       0.00      10.57       0.00      10.57        3.44     0.75   0.962
  SC07                      12.08       0.00       0.00       0.00      11.78       0.00      11.78        0.56     0.18   0.975
  SC08                      22.28       0.00       0.00       0.00      22.15       0.00      22.15        6.20     3.17   0.994
  SC09                      10.98       0.00       0.00       0.00      10.76       0.00      10.76        0.74     0.23   0.980
  SC010                     10.65       0.00       0.00       0.00      10.49       0.00      10.49        1.23     0.37   0.985
  
  
  ******************
  Node Depth Summary
  ******************
  
  ---------------------------------------------------------------------------------
                                 Average  Maximum  Maximum  Time of Max    Reported
                                   Depth    Depth      HGL   Occurrence   Max Depth
  Node                 Type       Meters   Meters   Meters  days hr:min      Meters
  ---------------------------------------------------------------------------------
  J1                   JUNCTION     0.05     0.24    34.24     0  19:11        0.24
  J3                   JUNCTION     0.07     0.11    18.11     0  21:20        0.11
  CSO7                 JUNCTION     0.10     1.20    35.20     0  19:10        1.20
  J5                   JUNCTION     0.05     0.19    32.19     0  19:21        0.19
  CSO9                 JUNCTION     0.11     2.00    42.00     0  19:00        2.00
  J8                   JUNCTION     0.08     0.30    36.30     0  19:12        0.30
  CSO8                 JUNCTION     0.17     2.00    34.00     0  18:16        2.00
  J10                  JUNCTION     0.07     0.56    29.56     0  18:37        0.56
  J13                  JUNCTION     0.04     0.30    29.30     0  19:16        0.29
  J15                  JUNCTION     0.11     0.38    15.38     0  19:13        0.38
  J16                  JUNCTION     0.04     0.25    30.25     0  19:11        0.25
  CSO10                JUNCTION     0.09     1.00    31.00     0  18:51        1.00
  J12                  JUNCTION     0.26     1.10    27.10     0  19:03        1.10
  J4                   JUNCTION     0.10     1.54    34.54     0  20:12        0.75
  J6                   JUNCTION     0.04     0.07    25.07     0  20:58        0.07
  J2                   JUNCTION     0.05     0.08    25.08     0  20:24        0.08
  J19                  JUNCTION     0.09     0.17     8.17     0  19:15        0.17
  J9                   JUNCTION     0.07     0.11    29.11     0  21:17        0.11
  J14                  JUNCTION     0.07     0.11    20.11     0  18:59        0.11
  J17                  JUNCTION     0.03     0.05    20.05     0  20:58        0.05
  J7                   JUNCTION     0.06     0.23    39.23     0  19:19        0.23
  J11                  JUNCTION     0.06     0.30    31.30     0  19:43        0.30
  J18                  JUNCTION     0.03     0.16    29.16     0  19:19        0.16
  Out_to_WWTP          OUTFALL      0.09     0.17     6.17     0  21:26        0.17
  T5                   STORAGE      1.36     5.00    32.00     0  19:28        5.00
  T4                   STORAGE      1.29     5.00    32.00     0  20:14        5.00
  T6                   STORAGE      1.48     5.00    36.00     0  19:25        5.00
  T3                   STORAGE      1.57     5.00    27.00     0  19:04        5.00
  T2                   STORAGE      1.39     5.00    26.00     0  19:36        5.00
  T1                   STORAGE      1.15     5.00    15.00     0  19:14        5.00
  
  
  *******************
  Node Inflow Summary
  *******************
  
  -------------------------------------------------------------------------------------------------
                                  Maximum  Maximum                  Lateral       Total        Flow
                                  Lateral    Total  Time of Max      Inflow      Inflow     Balance
                                   Inflow   Inflow   Occurrence      Volume      Volume       Error
  Node                 Type           CMS      CMS  days hr:min    10^6 ltr    10^6 ltr     Percent
  -------------------------------------------------------------------------------------------------
  J1                   JUNCTION     0.542    0.542     0  19:11        2.74        2.74      -0.015
  J3                   JUNCTION     0.000    0.127     0  20:57           0        4.69       0.596
  CSO7                 JUNCTION     0.188    0.188     0  19:16        1.12        1.12       0.029
  J5                   JUNCTION     0.264    0.337     0  19:16        1.06        2.08       0.053
  CSO9                 JUNCTION     0.234    0.234     0  19:06        1.12        1.12      -0.036
  J8                   JUNCTION     0.778    0.893     0  19:06        5.27        6.34       0.071
  CSO8                 JUNCTION     3.172    3.172     0  18:36        6.65        6.65      -0.020
  J10                  JUNCTION     3.516    3.988     0  18:36        4.77         9.2      -0.103
  J13                  JUNCTION     1.374    1.374     0  19:16        3.63        3.63      -0.040
  J15                  JUNCTION     0.000    1.383     0  19:11           0        11.2       0.551
  J16                  JUNCTION     1.158    1.158     0  19:11        4.56        4.56      -0.051
  CSO10                JUNCTION     0.374    0.374     0  19:11         1.5         1.5      -0.012
  J12                  JUNCTION     0.000    3.202     0  18:37           0          12       7.412
  J4                   JUNCTION     0.000    0.084     0  19:10           0        1.02       0.059
  J6                   JUNCTION     0.000    0.028     0  20:14           0       0.958       0.417
  J2                   JUNCTION     0.000    0.039     0  19:28           0        1.41       0.370
  J19                  JUNCTION     0.000    0.271     0  19:14           0         8.2       0.128
  J9                   JUNCTION     0.000    0.075     0  19:26           0        2.75       0.693
  J14                  JUNCTION     0.000    0.060     0  19:04           0        2.33       0.188
  J17                  JUNCTION     0.000    0.015     0  19:36           0       0.552       0.698
  J7                   JUNCTION     0.000    0.127     0  19:19           0        1.07       0.153
  J11                  JUNCTION     0.000    0.486     0  19:42           0        4.44       0.109
  J18                  JUNCTION     0.000    0.202     0  19:19           0         1.4       0.046
  Out_to_WWTP          OUTFALL      0.000    0.271     0  19:16           0        8.19       0.000
  T5                   STORAGE      0.000    0.504     0  19:11           0        2.74      16.649
  T4                   STORAGE      0.000    0.317     0  19:21           0        2.08      18.441
  T6                   STORAGE      0.000    0.846     0  19:12           0        6.33      13.500
  T3                   STORAGE      0.000    2.531     0  18:38           0        11.2      13.908
  T2                   STORAGE      0.000    1.263     0  19:16           0        3.64      34.065
  T1                   STORAGE      0.000    1.255     0  19:13           0        11.1       4.761
  
  
  **********************
  Node Surcharge Summary
  **********************
  
  Surcharging occurs when water rises above the top of the highest conduit.
  ---------------------------------------------------------------------
                                               Max. Height   Min. Depth
                                   Hours       Above Crown    Below Rim
  Node                 Type      Surcharged         Meters       Meters
  ---------------------------------------------------------------------
  CSO7                 JUNCTION        1.04          0.945        0.000
  CSO9                 JUNCTION        0.87          1.682        0.000
  CSO8                 JUNCTION        1.44          1.547        0.000
  CSO10                JUNCTION        0.55          0.560        0.000
  J4                   JUNCTION        0.94          1.242        0.458
  
  
  *********************
  Node Flooding Summary
  *********************
  
  Flooding refers to all water that overflows a node, whether it ponds or not.
  --------------------------------------------------------------------------
                                                             Total   Maximum
                                 Maximum   Time of Max       Flood    Ponded
                        Hours       Rate    Occurrence      Volume     Depth
  Node                 Flooded       CMS   days hr:min    10^6 ltr    Meters
  --------------------------------------------------------------------------
  CSO7                    0.63     0.115      0  19:16       0.100     0.000
  CSO9                    0.32     0.109      0  19:06       0.054     0.000
  CSO8                    1.21     2.685      0  18:36       2.217     0.000
  CSO10                   0.43     0.170      0  19:11       0.104     0.000
  T5                      1.88     0.173      0  19:28       0.537     0.000
  T4                      1.58     0.147      0  20:14       0.355     0.000
  T6                      2.78     0.513      0  19:25       2.298     0.000
  T3                      4.31     1.597      0  19:06       4.815     0.000
  T2                      2.54     0.439      0  20:12       1.179     0.000
  T1                      2.06     0.966      0  19:14       1.978     0.000
  
  
  **********************
  Storage Volume Summary
  **********************
  
  --------------------------------------------------------------------------------------------------
                         Average     Avg  Evap Exfil       Maximum     Max    Time of Max    Maximum
                          Volume    Pcnt  Pcnt  Pcnt        Volume    Pcnt     Occurrence    Outflow
  Storage Unit           1000 m3    Full  Loss  Loss       1000 m3    Full    days hr:min        CMS
  --------------------------------------------------------------------------------------------------
  T5                       0.136      27     0     0         0.500     100       0  19:28      0.039
  T4                       0.129      26     0     0         0.500     100       0  20:14      0.028
  T6                       0.178      30     0     0         0.600     100       0  19:25      0.075
  T3                       0.818      31     0     0         2.600     100       0  19:04      0.457
  T2                       0.277      28     0     0         1.000     100       0  19:36      0.015
  T1                       0.161      23     0     0         0.700     100       0  19:14      0.271
  
  
  ***********************
  Outfall Loading Summary
  ***********************
  
  -----------------------------------------------------------
                         Flow       Avg       Max       Total
                         Freq      Flow      Flow      Volume
  Outfall Node           Pcnt       CMS       CMS    10^6 ltr
  -----------------------------------------------------------
  Out_to_WWTP           99.43     0.097     0.271       8.194
  -----------------------------------------------------------
  System                99.43     0.097     0.271       8.194
  
  
  ********************
  Link Flow Summary
  ********************
  
  -----------------------------------------------------------------------------
                                 Maximum  Time of Max   Maximum    Max/    Max/
                                  |Flow|   Occurrence   |Veloc|    Full    Full
  Link                 Type          CMS  days hr:min     m/sec    Flow   Depth
  -----------------------------------------------------------------------------
  C1                   CONDUIT     0.039     0  20:15      1.07    0.01    0.10
  C6                   CONDUIT     0.073     0  19:21      1.28    1.16    0.81
  C2                   CONDUIT     0.028     0  20:57      1.00    0.03    0.16
  C9                   CONDUIT     0.127     0  19:19      1.29    0.43    0.53
  C16                  CONDUIT     0.491     0  19:16      1.79    0.05    0.21
  C3                   CONDUIT     0.060     0  19:16      1.42    0.02    0.11
  C19                  CONDUIT     0.015     0  20:58      0.42    0.01    0.21
  C11                  CONDUIT     0.127     0  21:20      1.56    0.01    0.12
  C20                  CONDUIT     1.067     0  19:11      3.47    0.03    0.16
  C22                  CONDUIT     0.202     0  19:19      1.56    0.09    0.34
  C12                  CONDUIT     0.075     0  21:17      0.89    0.01    0.30
  C17                  CONDUIT     3.166     0  18:37      5.06    0.16    0.35
  C10                  CONDUIT     0.846     0  19:12      0.94    0.09    0.60
  C13                  CONDUIT     2.531     0  18:38      1.21    0.15    0.78
  C18                  CONDUIT     1.263     0  19:16      1.01    0.05    0.57
  C23                  CONDUIT     1.255     0  19:13      1.08    0.14    0.63
  C4                   CONDUIT     0.504     0  19:11      1.13    0.12    0.62
  C7                   CONDUIT     0.317     0  19:21      0.83    0.08    0.59
  C14                  CONDUIT     0.271     0  19:16      2.08    0.02    0.09
  C5                   CONDUIT     0.084     0  19:10      1.65    1.44    1.00
  C8                   CONDUIT     0.127     0  19:19      1.88    1.60    0.86
  C15                  CONDUIT     0.486     0  19:42      3.56    1.55    0.83
  C21                  CONDUIT     0.202     0  19:19      1.88    1.16    0.69
  V4                   ORIFICE     0.028     0  20:14                      0.35
  V5                   ORIFICE     0.039     0  19:28                      1.00
  V1                   ORIFICE     0.271     0  19:14                      1.00
  V6                   ORIFICE     0.075     0  19:26                      0.43
  V3                   ORIFICE     0.060     0  19:04                      0.32
  V2                   ORIFICE     0.015     0  19:36                      0.11
  
  
  ***************************
  Flow Classification Summary
  ***************************
  
  -------------------------------------------------------------------------------------
                      Adjusted    ---------- Fraction of Time in Flow Class ---------- 
                       /Actual         Up    Down  Sub   Sup   Up    Down  Norm  Inlet 
  Conduit               Length    Dry  Dry   Dry   Crit  Crit  Crit  Crit  Ltd   Ctrl  
  -------------------------------------------------------------------------------------
  C1                      1.00   0.00  0.00  0.00  0.04  0.96  0.00  0.00  0.96  0.00
  C6                      1.00   0.00  0.00  0.00  0.06  0.94  0.00  0.00  0.00  0.00
  C2                      1.00   0.00  0.00  0.00  0.16  0.84  0.00  0.00  0.98  0.00
  C9                      1.00   0.00  0.00  0.00  1.00  0.00  0.00  0.00  1.00  0.00
  C16                     1.00   0.00  0.25  0.00  0.56  0.19  0.00  0.00  0.44  0.00
  C3                      1.00   0.00  0.00  0.00  0.03  0.96  0.00  0.00  0.95  0.00
  C19                     1.00   0.00  0.00  0.00  1.00  0.00  0.00  0.00  1.00  0.00
  C11                     1.00   0.00  0.00  0.00  0.13  0.87  0.00  0.00  1.00  0.00
  C20                     1.00   0.00  0.00  0.00  0.75  0.25  0.00  0.00  0.99  0.00
  C22                     1.00   0.00  0.00  0.00  0.93  0.07  0.00  0.00  1.00  0.00
  C12                     1.00   0.00  0.00  0.00  0.41  0.59  0.00  0.00  1.00  0.00
  C17                     1.00   0.00  0.00  0.00  0.54  0.46  0.00  0.00  0.98  0.00
  C10                     1.00   0.00  0.00  0.00  0.83  0.17  0.00  0.00  0.98  0.00
  C13                     1.00   0.00  0.00  0.00  0.89  0.11  0.00  0.00  0.72  0.00
  C18                     1.00   0.00  0.00  0.00  0.96  0.04  0.00  0.00  0.98  0.00
  C23                     1.00   0.00  0.00  0.00  0.76  0.24  0.00  0.00  0.96  0.00
  C4                      1.00   0.00  0.00  0.00  0.82  0.18  0.00  0.00  0.98  0.00
  C7                      1.00   0.00  0.00  0.00  0.84  0.16  0.00  0.00  0.97  0.00
  C14                     1.00   0.00  0.00  0.00  0.00  1.00  0.00  0.00  0.50  0.00
  C5                      1.00   0.00  0.00  0.00  0.95  0.05  0.00  0.00  0.94  0.00
  C8                      1.00   0.00  0.00  0.00  0.22  0.78  0.00  0.00  0.00  0.00
  C15                     1.00   0.25  0.00  0.00  0.00  0.75  0.00  0.00  0.00  0.00
  C21                     1.00   0.00  0.00  0.00  0.00  1.00  0.00  0.00  0.00  0.00
  
  
  *************************
  Conduit Surcharge Summary
  *************************
  
  ----------------------------------------------------------------------------
                                                           Hours        Hours 
                         --------- Hours Full --------   Above Full   Capacity
  Conduit                Both Ends  Upstream  Dnstream   Normal Flow   Limited
  ----------------------------------------------------------------------------
  C6                          0.01      0.94      0.01      0.69         0.01
  C10                         0.01      0.01      4.66      0.01         0.01
  C13                         0.01      0.01      5.31      0.01         0.01
  C18                         0.01      0.01      4.49      0.01         0.01
  C23                         0.01      0.01      4.76      0.01         0.01
  C4                          0.01      0.01      8.69      0.01         0.01
  C7                          0.01      0.01      6.95      0.01         0.01
  C5                          0.91      1.04      1.17      1.01         0.83
  C8                          0.01      0.87      0.01      0.88         0.01
  C15                         0.01      1.44      0.01      1.52         0.01
  C21                         0.01      0.55      0.01      0.52         0.01
  

  Analysis begun on:  Tue Sep 21 00:52:55 2021
  Analysis ended on:  Tue Sep 21 00:52:56 2021
  Total elapsed time: 00:00:01