
  EPA STORM WATER MANAGEMENT MODEL - VERSION 5.1 (Build 5.3.0.dev0)
  --------------------------------------------------------------

  WARNING 09: time series interval greater than recording interval for Rain Gage RG1
  WARNING 09: time series interval greater than recording interval for Rain Gage RG2
  WARNING 09: time series interval greater than recording interval for Rain Gage RG3
  WARNING 09: time series interval greater than recording interval for Rain Gage RG4
  
  *********************************************************
  NOTE: The summary statistics displayed in this report are
  based on results found at every computational time step,  
  not just on results from each reporting time step.
  *********************************************************
  
  ****************
  Analysis Options
  ****************
  Flow Units ............... CMS
  Process Models:
    Rainfall/Runoff ........ YES
    RDII ................... NO
    Snowmelt ............... NO
    Groundwater ............ NO
    Flow Routing ........... YES
    Ponding Allowed ........ YES
    Water Quality .......... NO
  Infiltration Method ...... HORTON
  Flow Routing Method ...... DYNWAVE
  Surcharge Method ......... EXTRAN
  Starting Date ............ 08/28/2015 00:00:00
  Ending Date .............. 08/28/2015 23:40:00
  Antecedent Dry Days ...... 0.0
  Report Time Step ......... 00:01:00
  Wet Time Step ............ 00:01:00
  Dry Time Step ............ 00:01:00
  Routing Time Step ........ 5.00 sec
  Variable Time Step ....... YES
  Maximum Trials ........... 8
  Number of Threads ........ 1
  Head Tolerance ........... 0.001500 m
  
  
  **************************        Volume         Depth
  Runoff Quantity Continuity     hectare-m            mm
  **************************     ---------       -------
  Total Precipitation ......         2.294        12.732
  Evaporation Loss .........         0.000         0.000
  Infiltration Loss ........         0.000         0.000
  Surface Runoff ...........         2.278        12.640
  Final Storage ............         0.022         0.122
  Continuity Error (%) .....        -0.239
  
  
  **************************        Volume        Volume
  Flow Routing Continuity        hectare-m      10^6 ltr
  **************************     ---------     ---------
  Dry Weather Inflow .......         0.758         7.576
  Wet Weather Inflow .......         2.278        22.777
  Groundwater Inflow .......         0.000         0.000
  RDII Inflow ..............         0.000         0.000
  External Inflow ..........         0.000         0.000
  External Outflow .........         1.202        12.020
  Flooding Loss ............         0.900         8.996
  Evaporation Loss .........         0.000         0.000
  Exfiltration Loss ........         0.000         0.000
  Initial Stored Volume ....         0.000         0.000
  Final Stored Volume ......         0.748         7.484
  Continuity Error (%) .....         6.105
  
  
  *************************
  Highest Continuity Errors
  *************************
  Node T2 (30.87%)
  Node T3 (12.62%)
  Node T4 (11.31%)
  Node T5 (8.94%)
  Node T6 (8.60%)
  
  
  ***************************
  Time-Step Critical Elements
  ***************************
  None
  
  
  ********************************
  Highest Flow Instability Indexes
  ********************************
  All links are stable.
  
  
  *************************
  Routing Time Step Summary
  *************************
  Minimum Time Step           :     4.50 sec
  Average Time Step           :     5.00 sec
  Maximum Time Step           :     5.00 sec
  Percent in Steady State     :     0.00
  Average Iterations per Step :     2.16
  Percent Not Converging      :     0.28
  
  
  ***************************
  Subcatchment Runoff Summary
  ***************************
  
  ------------------------------------------------------------------------------------------------------------------------------
                            Total      Total      Total      Total     Imperv       Perv      Total       Total     Peak  Runoff
                           Precip      Runon       Evap      Infil     Runoff     Runoff     Runoff      Runoff   Runoff   Coeff
  Subcatchment                 mm         mm         mm         mm         mm         mm         mm    10^6 ltr      CMS
  ------------------------------------------------------------------------------------------------------------------------------
  SC01                      14.48       0.00       0.00       0.00      14.45       0.00      14.45        4.77     2.90   0.998
  SC02                       8.85       0.00       0.00       0.00       8.79       0.00       8.79        2.00     0.57   0.993
  SC03                      14.56       0.00       0.00       0.00      14.56       0.00      14.56        2.62     0.76   1.000
  SC04                       8.85       0.00       0.00       0.00       8.72       0.00       8.72        0.60     0.14   0.986
  SC05                      14.48       0.00       0.00       0.00      14.44       0.00      14.44        2.25     1.27   0.997
  SC06                      11.31       0.00       0.00       0.00      11.07       0.00      11.07        3.60     0.59   0.979
  SC07                       8.85       0.00       0.00       0.00       8.72       0.00       8.72        0.41     0.09   0.986
  SC08                      14.56       0.00       0.00       0.00      14.47       0.00      14.47        4.05     0.94   0.994
  SC09                      11.31       0.00       0.00       0.00      11.17       0.00      11.17        0.77     0.16   0.988
  SC010                     14.48       0.00       0.00       0.00      14.41       0.00      14.41        1.69     0.79   0.995
  
  
  ******************
  Node Depth Summary
  ******************
  
  ---------------------------------------------------------------------------------
                                 Average  Maximum  Maximum  Time of Max    Reported
                                   Depth    Depth      HGL   Occurrence   Max Depth
  Node                 Type       Meters   Meters   Meters  days hr:min      Meters
  ---------------------------------------------------------------------------------
  J1                   JUNCTION     0.05     0.37    34.37     0  17:56        0.36
  J3                   JUNCTION     0.08     0.11    18.11     0  13:58        0.11
  CSO7                 JUNCTION     0.09     1.20    35.20     0  11:10        1.20
  J5                   JUNCTION     0.04     0.15    32.15     0  11:32        0.15
  CSO9                 JUNCTION     0.11     2.00    42.00     0  11:20        2.00
  J8                   JUNCTION     0.08     0.27    36.27     0  11:27        0.27
  CSO8                 JUNCTION     0.15     2.00    34.00     0  10:55        2.00
  J10                  JUNCTION     0.07     0.32    29.32     0  11:32        0.32
  J13                  JUNCTION     0.04     0.20    29.20     0  11:26        0.20
  J15                  JUNCTION     0.12     0.50    15.50     0  17:59        0.50
  J16                  JUNCTION     0.05     0.40    30.40     0  17:56        0.39
  CSO10                JUNCTION     0.10     1.00    31.00     0  11:16        1.00
  J12                  JUNCTION     0.53     1.08    27.08     0  18:05        1.08
  J4                   JUNCTION     0.10     1.54    34.54     0  11:12        0.77
  J6                   JUNCTION     0.05     0.07    25.07     0  15:56        0.07
  J2                   JUNCTION     0.06     0.08    25.08     0  12:54        0.08
  J19                  JUNCTION     0.11     0.17     8.17     0  18:00        0.17
  J9                   JUNCTION     0.08     0.11    29.11     0  13:30        0.11
  J14                  JUNCTION     0.08     0.10    20.10     0  14:39        0.10
  J17                  JUNCTION     0.04     0.05    20.05     0  14:56        0.05
  J7                   JUNCTION     0.06     0.23    39.23     0  11:28        0.23
  J11                  JUNCTION     0.06     0.30    31.30     0  11:41        0.30
  J18                  JUNCTION     0.04     0.16    29.16     0  18:09        0.16
  Out_to_WWTP          OUTFALL      0.11     0.17     6.17     0  12:35        0.17
  T5                   STORAGE      2.46     5.00    32.00     0  12:10        5.00
  T4                   STORAGE      2.28     4.79    31.79     0  15:54        4.79
  T6                   STORAGE      2.63     5.00    36.00     0  11:31        5.00
  T3                   STORAGE      2.71     5.00    27.00     0  13:37        5.00
  T2                   STORAGE      2.69     5.00    26.00     0  13:50        5.00
  T1                   STORAGE      2.12     5.00    15.00     0  11:34        5.00
  
  
  *******************
  Node Inflow Summary
  *******************
  
  -------------------------------------------------------------------------------------------------
                                  Maximum  Maximum                  Lateral       Total        Flow
                                  Lateral    Total  Time of Max      Inflow      Inflow     Balance
                                   Inflow   Inflow   Occurrence      Volume      Volume       Error
  Node                 Type           CMS      CMS  days hr:min    10^6 ltr    10^6 ltr     Percent
  -------------------------------------------------------------------------------------------------
  J1                   JUNCTION     1.287    1.287     0  17:56        3.35        3.35      -0.025
  J3                   JUNCTION     0.000    0.127     0  13:47           0        6.39       0.415
  CSO7                 JUNCTION     0.106    0.106     0  11:31       0.979       0.979       0.011
  J5                   JUNCTION     0.142    0.213     0  11:31        0.85         1.8       0.001
  CSO9                 JUNCTION     0.167    0.167     0  11:21        1.15        1.15      -0.010
  J8                   JUNCTION     0.632    0.735     0  11:21        5.44        6.58       0.013
  CSO8                 JUNCTION     0.953    0.953     0  11:31         4.5         4.5      -0.024
  J10                  JUNCTION     0.773    1.259     0  11:31        3.37        7.54      -0.118
  J13                  JUNCTION     0.589    0.589     0  11:26        2.91        2.91      -0.144
  J15                  JUNCTION     0.000    3.095     0  17:56           0        14.8       0.411
  J16                  JUNCTION     2.912    2.912     0  17:56        5.85        5.85      -0.107
  CSO10                JUNCTION     0.794    0.794     0  17:56        1.96        1.96      -0.081
  J12                  JUNCTION     0.000    1.190     0  11:32           0        11.7       7.568
  J4                   JUNCTION     0.000    0.081     0  11:11           0       0.952       0.063
  J6                   JUNCTION     0.000    0.027     0  15:54           0        1.32       0.251
  J2                   JUNCTION     0.000    0.039     0  12:10           0        1.95       0.241
  J19                  JUNCTION     0.000    0.271     0  11:34           0          12       0.072
  J9                   JUNCTION     0.000    0.075     0  11:50           0        3.73       0.402
  J14                  JUNCTION     0.000    0.060     0  13:37           0        3.12       0.140
  J17                  JUNCTION     0.000    0.015     0  13:51           0       0.793       0.475
  J7                   JUNCTION     0.000    0.127     0  11:28           0        1.14       0.100
  J11                  JUNCTION     0.000    0.486     0  11:40           0        4.17       0.089
  J18                  JUNCTION     0.000    0.202     0  18:09           0        1.75      -0.008
  Out_to_WWTP          OUTFALL      0.000    0.271     0  18:01           0          12       0.000
  T5                   STORAGE      0.000    1.173     0  17:56           0        3.35       9.818
  T4                   STORAGE      0.000    0.205     0  11:32           0         1.8      12.750
  T6                   STORAGE      0.000    0.698     0  11:27           0        6.58       9.404
  T3                   STORAGE      0.000    1.476     0  18:08           0        10.9      14.438
  T2                   STORAGE      0.000    0.536     0  11:27           0        2.91      44.654
  T1                   STORAGE      0.000    2.162     0  17:59           0        14.7       2.085
  
  
  **********************
  Node Surcharge Summary
  **********************
  
  Surcharging occurs when water rises above the top of the highest conduit.
  ---------------------------------------------------------------------
                                               Max. Height   Min. Depth
                                   Hours       Above Crown    Below Rim
  Node                 Type      Surcharged         Meters       Meters
  ---------------------------------------------------------------------
  CSO7                 JUNCTION        0.71          0.945        0.000
  CSO9                 JUNCTION        0.91          1.682        0.000
  CSO8                 JUNCTION        1.22          1.547        0.000
  CSO10                JUNCTION        0.73          0.560        0.000
  J4                   JUNCTION        0.69          1.243        0.457
  
  
  *********************
  Node Flooding Summary
  *********************
  
  Flooding refers to all water that overflows a node, whether it ponds or not.
  --------------------------------------------------------------------------
                                                             Total   Maximum
                                 Maximum   Time of Max       Flood    Ponded
                        Hours       Rate    Occurrence      Volume     Depth
  Node                 Flooded       CMS   days hr:min    10^6 ltr    Meters
  --------------------------------------------------------------------------
  CSO7                    0.55     0.035      0  11:31       0.027     0.000
  CSO9                    0.19     0.050      0  18:06       0.010     0.000
  CSO8                    0.72     0.467      0  11:31       0.328     0.000
  CSO10                   0.43     0.592      0  17:56       0.212     0.000
  T5                      2.77     1.133      0  17:56       0.794     0.000
  T6                      4.27     0.603      0  11:32       1.882     0.000
  T3                      8.49     1.416      0  18:08       3.353     0.000
  T2                      5.75     0.129      0  15:12       0.273     0.000
  T1                      2.07     1.879      0  17:59       2.116     0.000
  
  
  **********************
  Storage Volume Summary
  **********************
  
  --------------------------------------------------------------------------------------------------
                         Average     Avg  Evap Exfil       Maximum     Max    Time of Max    Maximum
                          Volume    Pcnt  Pcnt  Pcnt        Volume    Pcnt     Occurrence    Outflow
  Storage Unit           1000 m3    Full  Loss  Loss       1000 m3    Full    days hr:min        CMS
  --------------------------------------------------------------------------------------------------
  T5                       0.246      49     0     0         0.500     100       0  12:10      0.039
  T4                       0.228      46     0     0         0.479      96       0  15:54      0.027
  T6                       0.316      53     0     0         0.600     100       0  11:31      0.075
  T3                       1.410      54     0     0         2.600     100       0  13:37      0.345
  T2                       0.538      54     0     0         1.000     100       0  13:50      0.015
  T1                       0.296      42     0     0         0.700     100       0  11:34      0.271
  
  
  ***********************
  Outfall Loading Summary
  ***********************
  
  -----------------------------------------------------------
                         Flow       Avg       Max       Total
                         Freq      Flow      Flow      Volume
  Outfall Node           Pcnt       CMS       CMS    10^6 ltr
  -----------------------------------------------------------
  Out_to_WWTP           99.43     0.142     0.271      12.020
  -----------------------------------------------------------
  System                99.43     0.142     0.271      12.020
  
  
  ********************
  Link Flow Summary
  ********************
  
  -----------------------------------------------------------------------------
                                 Maximum  Time of Max   Maximum    Max/    Max/
                                  |Flow|   Occurrence   |Veloc|    Full    Full
  Link                 Type          CMS  days hr:min     m/sec    Flow   Depth
  -----------------------------------------------------------------------------
  C1                   CONDUIT     0.039     0  12:54      1.05    0.01    0.10
  C6                   CONDUIT     0.071     0  11:32      1.29    1.13    0.75
  C2                   CONDUIT     0.027     0  15:56      0.99    0.03    0.15
  C9                   CONDUIT     0.126     0  11:28      1.29    0.43    0.50
  C16                  CONDUIT     0.488     0  11:26      1.79    0.05    0.15
  C3                   CONDUIT     0.060     0  14:39      1.36    0.02    0.11
  C19                  CONDUIT     0.015     0  14:56      0.43    0.01    0.28
  C11                  CONDUIT     0.127     0  13:58      1.54    0.01    0.15
  C20                  CONDUIT     2.757     0  17:56      6.06    0.09    0.21
  C22                  CONDUIT     0.202     0  18:10      1.57    0.09    0.41
  C12                  CONDUIT     0.075     0  13:29      0.75    0.01    0.30
  C17                  CONDUIT     1.120     0  11:32      3.28    0.06    0.34
  C10                  CONDUIT     0.698     0  11:27      0.94    0.07    0.59
  C13                  CONDUIT     1.476     0  18:08      0.85    0.09    0.77
  C18                  CONDUIT     0.536     0  11:27      1.01    0.02    0.55
  C23                  CONDUIT     2.162     0  17:59      1.73    0.24    0.67
  C4                   CONDUIT     1.173     0  17:56      2.05    0.28    0.68
  C7                   CONDUIT     0.205     0  11:32      0.83    0.05    0.58
  C14                  CONDUIT     0.271     0  18:01      2.08    0.02    0.09
  C5                   CONDUIT     0.081     0  11:11      1.59    1.39    1.00
  C8                   CONDUIT     0.127     0  11:28      1.92    1.60    0.86
  C15                  CONDUIT     0.486     0  11:40      3.89    1.55    0.83
  C21                  CONDUIT     0.202     0  18:09      1.99    1.16    0.69
  V4                   ORIFICE     0.027     0  15:54                      0.35
  V5                   ORIFICE     0.039     0  12:10                      1.00
  V1                   ORIFICE     0.271     0  11:34                      1.00
  V6                   ORIFICE     0.075     0  11:50                      0.43
  V3                   ORIFICE     0.060     0  13:37                      0.32
  V2                   ORIFICE     0.015     0  13:51                      0.11
  
  
  ***************************
  Flow Classification Summary
  ***************************
  
  -------------------------------------------------------------------------------------
                      Adjusted    ---------- Fraction of Time in Flow Class ---------- 
                       /Actual         Up    Down  Sub   Sup   Up    Down  Norm  Inlet 
  Conduit               Length    Dry  Dry   Dry   Crit  Crit  Crit  Crit  Ltd   Ctrl  
  -------------------------------------------------------------------------------------
  C1                      1.00   0.00  0.00  0.00  0.04  0.96  0.00  0.00  0.96  0.00
  C6                      1.00   0.00  0.00  0.00  0.04  0.96  0.00  0.00  0.00  0.00
  C2                      1.00   0.00  0.00  0.00  0.09  0.91  0.00  0.00  0.98  0.00
  C9                      1.00   0.00  0.00  0.00  1.00  0.00  0.00  0.00  1.00  0.00
  C16                     1.00   0.00  0.25  0.00  0.48  0.26  0.00  0.00  0.31  0.00
  C3                      1.00   0.00  0.00  0.00  0.03  0.96  0.00  0.00  1.00  0.00
  C19                     1.00   0.00  0.00  0.00  1.00  0.00  0.00  0.00  1.00  0.00
  C11                     1.00   0.00  0.00  0.00  0.13  0.87  0.00  0.00  1.00  0.00
  C20                     1.00   0.00  0.00  0.00  0.70  0.30  0.00  0.00  0.99  0.00
  C22                     1.00   0.00  0.00  0.00  0.93  0.07  0.00  0.00  1.00  0.00
  C12                     1.00   0.00  0.00  0.00  0.72  0.27  0.00  0.00  0.97  0.00
  C17                     1.00   0.00  0.00  0.00  0.74  0.26  0.00  0.00  0.98  0.00
  C10                     1.00   0.00  0.00  0.00  0.83  0.17  0.00  0.00  0.98  0.00
  C13                     1.00   0.00  0.00  0.00  0.88  0.12  0.00  0.00  0.42  0.00
  C18                     1.00   0.00  0.00  0.00  0.96  0.04  0.00  0.00  0.98  0.00
  C23                     1.00   0.00  0.00  0.00  0.77  0.23  0.00  0.00  0.96  0.00
  C4                      1.00   0.00  0.00  0.00  0.82  0.18  0.00  0.00  0.98  0.00
  C7                      1.00   0.00  0.00  0.00  0.85  0.15  0.00  0.00  0.97  0.00
  C14                     1.00   0.00  0.00  0.00  0.00  1.00  0.00  0.00  0.39  0.00
  C5                      1.00   0.00  0.00  0.00  0.94  0.06  0.00  0.00  0.95  0.00
  C8                      1.00   0.00  0.00  0.00  0.25  0.75  0.00  0.00  0.00  0.00
  C15                     1.00   0.25  0.00  0.00  0.00  0.75  0.00  0.00  0.00  0.00
  C21                     1.00   0.00  0.00  0.00  0.01  0.99  0.00  0.00  0.00  0.00
  
  
  *************************
  Conduit Surcharge Summary
  *************************
  
  ----------------------------------------------------------------------------
                                                           Hours        Hours 
                         --------- Hours Full --------   Above Full   Capacity
  Conduit                Both Ends  Upstream  Dnstream   Normal Flow   Limited
  ----------------------------------------------------------------------------
  C6                          0.01      0.69      0.01      0.59         0.01
  C10                         0.01      0.01     12.81      0.01         0.01
  C13                         0.01      0.01     12.52      0.01         0.01
  C18                         0.01      0.01     12.46      0.01         0.01
  C23                         0.01      0.01     12.59      0.01         0.01
  C4                          0.01      0.01     12.78      0.01         0.01
  C7                          0.01      0.01     12.77      0.01         0.01
  C5                          0.68      0.71      0.78      0.74         0.65
  C8                          0.01      0.91      0.01      0.93         0.01
  C15                         0.01      1.22      0.01      1.27         0.01
  C21                         0.01      0.73      0.01      0.68         0.01
  

  Analysis begun on:  Tue Sep 21 00:54:22 2021
  Analysis ended on:  Tue Sep 21 00:54:23 2021
  Total elapsed time: 00:00:01