
  EPA STORM WATER MANAGEMENT MODEL - VERSION 5.1 (Build 5.3.0.dev0)
  --------------------------------------------------------------

  WARNING 09: time series interval greater than recording interval for Rain Gage RG1
  WARNING 09: time series interval greater than recording interval for Rain Gage RG2
  WARNING 09: time series interval greater than recording interval for Rain Gage RG3
  WARNING 09: time series interval greater than recording interval for Rain Gage RG4
  
  *********************************************************
  NOTE: The summary statistics displayed in this report are
  based on results found at every computational time step,  
  not just on results from each reporting time step.
  *********************************************************
  
  ****************
  Analysis Options
  ****************
  Flow Units ............... CMS
  Process Models:
    Rainfall/Runoff ........ YES
    RDII ................... NO
    Snowmelt ............... NO
    Groundwater ............ NO
    Flow Routing ........... YES
    Ponding Allowed ........ YES
    Water Quality .......... NO
  Infiltration Method ...... HORTON
  Flow Routing Method ...... DYNWAVE
  Surcharge Method ......... EXTRAN
  Starting Date ............ 08/28/2015 00:00:00
  Ending Date .............. 08/28/2015 23:40:00
  Antecedent Dry Days ...... 0.0
  Report Time Step ......... 00:01:00
  Wet Time Step ............ 00:01:00
  Dry Time Step ............ 00:01:00
  Routing Time Step ........ 5.00 sec
  Variable Time Step ....... YES
  Maximum Trials ........... 8
  Number of Threads ........ 1
  Head Tolerance ........... 0.001500 m
  
  
  **************************        Volume         Depth
  Runoff Quantity Continuity     hectare-m            mm
  **************************     ---------       -------
  Total Precipitation ......         2.022        11.220
  Evaporation Loss .........         0.000         0.000
  Infiltration Loss ........         0.000         0.000
  Surface Runoff ...........         2.021        11.215
  Final Storage ............         0.015         0.083
  Continuity Error (%) .....        -0.691
  
  
  **************************        Volume        Volume
  Flow Routing Continuity        hectare-m      10^6 ltr
  **************************     ---------     ---------
  Dry Weather Inflow .......         0.758         7.576
  Wet Weather Inflow .......         2.021        20.209
  Groundwater Inflow .......         0.000         0.000
  RDII Inflow ..............         0.000         0.000
  External Inflow ..........         0.000         0.000
  External Outflow .........         0.917         9.173
  Flooding Loss ............         1.032        10.318
  Evaporation Loss .........         0.000         0.000
  Exfiltration Loss ........         0.000         0.000
  Initial Stored Volume ....         0.000         0.000
  Final Stored Volume ......         0.699         6.993
  Continuity Error (%) .....         4.681
  
  
  *************************
  Highest Continuity Errors
  *************************
  Node T2 (25.19%)
  Node T3 (18.86%)
  Node T4 (11.02%)
  Node J12 (9.36%)
  Node T6 (8.00%)
  
  
  ***************************
  Time-Step Critical Elements
  ***************************
  None
  
  
  ********************************
  Highest Flow Instability Indexes
  ********************************
  Link C13 (1)
  
  
  *************************
  Routing Time Step Summary
  *************************
  Minimum Time Step           :     4.50 sec
  Average Time Step           :     5.00 sec
  Maximum Time Step           :     5.00 sec
  Percent in Steady State     :     0.00
  Average Iterations per Step :     2.08
  Percent Not Converging      :     0.32
  
  
  ***************************
  Subcatchment Runoff Summary
  ***************************
  
  ------------------------------------------------------------------------------------------------------------------------------
                            Total      Total      Total      Total     Imperv       Perv      Total       Total     Peak  Runoff
                           Precip      Runon       Evap      Infil     Runoff     Runoff     Runoff      Runoff   Runoff   Coeff
  Subcatchment                 mm         mm         mm         mm         mm         mm         mm    10^6 ltr      CMS
  ------------------------------------------------------------------------------------------------------------------------------
  SC01                      17.28       0.00       0.00       0.00      17.39       0.00      17.39        5.74     9.39   1.006
  SC02                      11.30       0.00       0.00       0.00      11.30       0.00      11.30        2.57     2.99   1.000
  SC03                       8.46       0.00       0.00       0.00       8.48       0.00       8.48        1.53     1.64   1.003
  SC04                      11.30       0.00       0.00       0.00      11.21       0.00      11.21        0.77     0.48   0.992
  SC05                      17.28       0.00       0.00       0.00      17.37       0.00      17.37        2.71     4.15   1.005
  SC06                       5.10       0.00       0.00       0.00       4.98       0.00       4.98        1.62     0.80   0.976
  SC07                      11.30       0.00       0.00       0.00      11.22       0.00      11.22        0.53     0.33   0.993
  SC08                       8.46       0.00       0.00       0.00       8.42       0.00       8.42        2.36     1.69   0.995
  SC09                       5.10       0.00       0.00       0.00       5.03       0.00       5.03        0.35     0.25   0.986
  SC010                     17.28       0.00       0.00       0.00      17.32       0.00      17.32        2.03     2.60   1.002
  
  
  ******************
  Node Depth Summary
  ******************
  
  ---------------------------------------------------------------------------------
                                 Average  Maximum  Maximum  Time of Max    Reported
                                   Depth    Depth      HGL   Occurrence   Max Depth
  Node                 Type       Meters   Meters   Meters  days hr:min      Meters
  ---------------------------------------------------------------------------------
  J1                   JUNCTION     0.05     7.00    41.00     0  14:01        1.06
  J3                   JUNCTION     0.08     0.11    18.11     0  15:46        0.11
  CSO7                 JUNCTION     0.10     1.20    35.20     0  14:01        1.20
  J5                   JUNCTION     0.04     0.24    32.24     0  14:07        0.24
  CSO9                 JUNCTION     0.08     2.00    42.00     0  13:55        2.00
  J8                   JUNCTION     0.06     0.30    36.30     0  14:02        0.30
  CSO8                 JUNCTION     0.09     2.00    34.00     0  13:50        2.00
  J10                  JUNCTION     0.05     0.41    29.41     0  14:02        0.41
  J13                  JUNCTION     0.04     0.43    29.43     0  14:06        0.42
  J15                  JUNCTION     0.11     1.14    16.14     0  14:07        1.14
  J16                  JUNCTION     0.04     0.78    30.78     0  14:01        0.68
  CSO10                JUNCTION     0.08     1.00    31.00     0  13:55        1.00
  J12                  JUNCTION     0.35     0.94    26.94     0  22:12        0.94
  J4                   JUNCTION     0.09     1.44    34.44     0  14:05        0.75
  J6                   JUNCTION     0.05     0.07    25.07     0  15:56        0.07
  J2                   JUNCTION     0.05     0.08    25.08     0  14:54        0.08
  J19                  JUNCTION     0.10     0.17     8.17     0  14:04        0.17
  J9                   JUNCTION     0.07     0.11    29.11     0  14:40        0.11
  J14                  JUNCTION     0.07     0.10    20.10     0  21:24        0.10
  J17                  JUNCTION     0.04     0.05    20.05     0  15:41        0.05
  J7                   JUNCTION     0.05     0.23    39.23     0  14:10        0.23
  J11                  JUNCTION     0.04     0.30    31.30     0  14:18        0.30
  J18                  JUNCTION     0.03     0.16    29.16     0  14:28        0.16
  Out_to_WWTP          OUTFALL      0.10     0.17     6.17     0  14:05        0.17
  T5                   STORAGE      1.76     5.00    32.00     0  14:02        5.00
  T4                   STORAGE      1.94     5.00    32.00     0  14:33        5.00
  T6                   STORAGE      1.86     5.00    36.00     0  14:23        5.00
  T3                   STORAGE      2.15     4.95    26.95     0  22:07        4.95
  T2                   STORAGE      2.22     5.00    26.00     0  14:14        5.00
  T1                   STORAGE      1.31     5.00    15.00     0  14:03        5.00
  
  
  *******************
  Node Inflow Summary
  *******************
  
  -------------------------------------------------------------------------------------------------
                                  Maximum  Maximum                  Lateral       Total        Flow
                                  Lateral    Total  Time of Max      Inflow      Inflow     Balance
                                   Inflow   Inflow   Occurrence      Volume      Volume       Error
  Node                 Type           CMS      CMS  days hr:min    10^6 ltr    10^6 ltr     Percent
  -------------------------------------------------------------------------------------------------
  J1                   JUNCTION     4.167    4.167     0  14:01         3.8         3.8      -0.158
  J3                   JUNCTION     0.000    0.125     0  15:35           0        5.51       0.475
  CSO7                 JUNCTION     0.343    0.343     0  14:06         1.1         1.1       0.010
  J5                   JUNCTION     0.487    0.561     0  14:06        1.02        1.93       0.005
  CSO9                 JUNCTION     0.256    0.256     0  14:01       0.729       0.729      -0.010
  J8                   JUNCTION     0.827    0.942     0  14:01        3.45        4.13      -0.008
  CSO8                 JUNCTION     1.699    1.699     0  14:01         2.8         2.8      -0.067
  J10                  JUNCTION     1.653    2.134     0  14:01        2.28        4.32      -0.255
  J13                  JUNCTION     3.005    3.005     0  14:06        3.48        3.48      -0.078
  J15                  JUNCTION     0.000    9.745     0  14:01           0          14       0.469
  J16                  JUNCTION     9.412    9.412     0  14:01        6.81        6.81      -0.214
  CSO10                JUNCTION     2.606    2.606     0  14:01        2.31        2.31      -0.045
  J12                  JUNCTION     0.000    1.809     0  14:02           0        7.92      10.326
  J4                   JUNCTION     0.000    0.085     0  14:03           0       0.907       0.047
  J6                   JUNCTION     0.000    0.028     0  14:33           0        1.16       0.290
  J2                   JUNCTION     0.000    0.039     0  14:02           0        1.63       0.247
  J19                  JUNCTION     0.000    0.271     0  14:03           0        9.18       0.084
  J9                   JUNCTION     0.000    0.075     0  14:23           0        3.06       0.401
  J14                  JUNCTION     0.000    0.060     0  22:07           0        2.73       0.160
  J17                  JUNCTION     0.000    0.015     0  14:14           0         0.7       0.558
  J7                   JUNCTION     0.000    0.127     0  14:10           0       0.677       0.136
  J11                  JUNCTION     0.000    0.486     0  14:17           0        2.05       0.250
  J18                  JUNCTION     0.000    0.202     0  14:28           0       0.988       0.025
  Out_to_WWTP          OUTFALL      0.000    0.271     0  14:05           0        9.17       0.000
  T5                   STORAGE      0.000    3.903     0  14:01           0         3.8       3.318
  T4                   STORAGE      0.000    0.509     0  14:07           0        1.93      12.386
  T6                   STORAGE      0.000    0.875     0  14:02           0        4.13       8.702
  T3                   STORAGE      0.000    1.588     0  14:03           0        7.17      23.240
  T2                   STORAGE      0.000    2.734     0  14:06           0        3.48      33.671
  T1                   STORAGE      0.000    5.081     0  14:02           0        13.9       1.230
  
  
  **********************
  Node Surcharge Summary
  **********************
  
  Surcharging occurs when water rises above the top of the highest conduit.
  ---------------------------------------------------------------------
                                               Max. Height   Min. Depth
                                   Hours       Above Crown    Below Rim
  Node                 Type      Surcharged         Meters       Meters
  ---------------------------------------------------------------------
  J1                   JUNCTION        0.03          6.000        0.000
  CSO7                 JUNCTION        0.80          0.945        0.000
  CSO9                 JUNCTION        0.38          1.682        0.000
  CSO8                 JUNCTION        0.71          1.547        0.000
  CSO10                JUNCTION        0.60          0.560        0.000
  J4                   JUNCTION        0.76          1.139        0.561
  
  
  *********************
  Node Flooding Summary
  *********************
  
  Flooding refers to all water that overflows a node, whether it ponds or not.
  --------------------------------------------------------------------------
                                                             Total   Maximum
                                 Maximum   Time of Max       Flood    Ponded
                        Hours       Rate    Occurrence      Volume     Depth
  Node                 Flooded       CMS   days hr:min    10^6 ltr    Meters
  --------------------------------------------------------------------------
  J1                      0.01     0.780      0  14:01       0.004     5.000
  CSO7                    0.68     0.268      0  14:06       0.191     0.000
  CSO9                    0.24     0.131      0  14:01       0.051     0.000
  CSO8                    0.47     1.213      0  14:01       0.758     0.000
  CSO10                   0.54     2.402      0  14:01       1.319     0.000
  T5                      1.26     2.933      0  14:02       1.850     0.000
  T4                      1.39     0.157      0  14:33       0.266     0.000
  T6                      1.39     0.335      0  14:23       0.514     0.000
  T2                      2.83     1.265      0  14:14       0.972     0.000
  T1                      1.11     4.362      0  14:03       4.392     0.000
  
  
  **********************
  Storage Volume Summary
  **********************
  
  --------------------------------------------------------------------------------------------------
                         Average     Avg  Evap Exfil       Maximum     Max    Time of Max    Maximum
                          Volume    Pcnt  Pcnt  Pcnt        Volume    Pcnt     Occurrence    Outflow
  Storage Unit           1000 m3    Full  Loss  Loss       1000 m3    Full    days hr:min        CMS
  --------------------------------------------------------------------------------------------------
  T5                       0.176      35     0     0         0.500     100       0  14:02      0.039
  T4                       0.194      39     0     0         0.500     100       0  14:33      0.028
  T6                       0.223      37     0     0         0.600     100       0  14:23      0.075
  T3                       1.119      43     0     0         2.572      99       0  22:07      0.237
  T2                       0.444      44     0     0         1.000     100       0  14:14      0.015
  T1                       0.184      26     0     0         0.700     100       0  14:03      0.271
  
  
  ***********************
  Outfall Loading Summary
  ***********************
  
  -----------------------------------------------------------
                         Flow       Avg       Max       Total
                         Freq      Flow      Flow      Volume
  Outfall Node           Pcnt       CMS       CMS    10^6 ltr
  -----------------------------------------------------------
  Out_to_WWTP           99.43     0.108     0.271       9.173
  -----------------------------------------------------------
  System                99.43     0.108     0.271       9.173
  
  
  ********************
  Link Flow Summary
  ********************
  
  -----------------------------------------------------------------------------
                                 Maximum  Time of Max   Maximum    Max/    Max/
                                  |Flow|   Occurrence   |Veloc|    Full    Full
  Link                 Type          CMS  days hr:min     m/sec    Flow   Depth
  -----------------------------------------------------------------------------
  C1                   CONDUIT     0.039     0  14:54      1.18    0.01    0.10
  C6                   CONDUIT     0.075     0  14:06      1.29    1.20    0.90
  C2                   CONDUIT     0.028     0  15:56      1.02    0.03    0.15
  C9                   CONDUIT     0.127     0  14:10      1.30    0.43    0.53
  C16                  CONDUIT     0.486     0  14:12      1.83    0.05    0.17
  C3                   CONDUIT     0.060     0  21:26      1.38    0.02    0.11
  C19                  CONDUIT     0.015     0  15:41      0.44    0.01    0.52
  C11                  CONDUIT     0.125     0  15:46      1.51    0.01    0.31
  C20                  CONDUIT     9.465     0  14:01      8.76    0.30    0.41
  C22                  CONDUIT     0.202     0  14:28      1.56    0.09    0.60
  C12                  CONDUIT     0.075     0  14:40      0.84    0.01    0.26
  C17                  CONDUIT     1.789     0  14:02      4.18    0.09    0.24
  C10                  CONDUIT     0.875     0  14:02      0.94    0.09    0.60
  C13                  CONDUIT     1.588     0  14:03      0.89    0.09    0.74
  C18                  CONDUIT     2.734     0  14:06      1.37    0.10    0.61
  C23                  CONDUIT     5.081     0  14:02      3.30    0.56    0.88
  C4                   CONDUIT     3.903     0  14:01      4.97    0.95    1.00
  C7                   CONDUIT     0.509     0  14:07      1.00    0.13    0.62
  C14                  CONDUIT     0.271     0  14:05      2.08    0.02    0.09
  C5                   CONDUIT     0.085     0  14:03      1.68    1.46    1.00
  C8                   CONDUIT     0.127     0  14:10      1.89    1.60    0.86
  C15                  CONDUIT     0.486     0  14:17      4.11    1.55    0.83
  C21                  CONDUIT     0.202     0  14:28      1.98    1.16    0.69
  V4                   ORIFICE     0.028     0  14:33                      0.35
  V5                   ORIFICE     0.039     0  14:02                      1.00
  V1                   ORIFICE     0.271     0  14:03                      1.00
  V6                   ORIFICE     0.075     0  14:23                      0.43
  V3                   ORIFICE     0.060     0  22:07                      0.32
  V2                   ORIFICE     0.015     0  14:14                      0.11
  
  
  ***************************
  Flow Classification Summary
  ***************************
  
  -------------------------------------------------------------------------------------
                      Adjusted    ---------- Fraction of Time in Flow Class ---------- 
                       /Actual         Up    Down  Sub   Sup   Up    Down  Norm  Inlet 
  Conduit               Length    Dry  Dry   Dry   Crit  Crit  Crit  Crit  Ltd   Ctrl  
  -------------------------------------------------------------------------------------
  C1                      1.00   0.00  0.00  0.00  0.03  0.97  0.00  0.00  0.96  0.00
  C6                      1.00   0.00  0.00  0.00  0.04  0.96  0.00  0.00  0.00  0.00
  C2                      1.00   0.00  0.00  0.00  0.11  0.89  0.00  0.00  0.97  0.00
  C9                      1.00   0.00  0.00  0.00  1.00  0.00  0.00  0.00  1.00  0.00
  C16                     1.00   0.00  0.25  0.00  0.60  0.15  0.00  0.00  0.55  0.00
  C3                      1.00   0.00  0.00  0.00  0.03  0.96  0.00  0.00  0.96  0.00
  C19                     1.00   0.00  0.00  0.00  1.00  0.00  0.00  0.00  1.00  0.00
  C11                     1.00   0.00  0.00  0.00  0.08  0.92  0.00  0.00  1.00  0.00
  C20                     1.00   0.00  0.00  0.00  0.85  0.15  0.00  0.00  0.99  0.00
  C22                     1.00   0.00  0.00  0.00  0.98  0.02  0.00  0.00  1.00  0.00
  C12                     1.00   0.00  0.00  0.00  0.63  0.37  0.00  0.00  0.93  0.00
  C17                     1.00   0.00  0.00  0.00  0.61  0.39  0.00  0.00  0.98  0.00
  C10                     1.00   0.00  0.00  0.00  0.87  0.13  0.00  0.00  0.98  0.00
  C13                     1.00   0.00  0.00  0.00  0.88  0.12  0.00  0.00  0.54  0.00
  C18                     1.00   0.00  0.00  0.00  0.96  0.04  0.00  0.00  0.98  0.00
  C23                     1.00   0.00  0.00  0.00  0.76  0.24  0.00  0.00  0.94  0.00
  C4                      1.00   0.00  0.00  0.00  0.82  0.18  0.00  0.00  0.97  0.00
  C7                      1.00   0.00  0.00  0.00  0.85  0.15  0.00  0.00  0.97  0.00
  C14                     1.00   0.00  0.00  0.00  0.00  1.00  0.00  0.00  0.56  0.00
  C5                      1.00   0.00  0.00  0.00  0.96  0.04  0.00  0.00  0.95  0.00
  C8                      1.00   0.00  0.00  0.00  0.24  0.76  0.00  0.00  0.01  0.00
  C15                     1.00   0.25  0.00  0.00  0.00  0.74  0.00  0.00  0.01  0.00
  C21                     1.00   0.00  0.00  0.00  0.00  1.00  0.00  0.00  0.00  0.00
  
  
  *************************
  Conduit Surcharge Summary
  *************************
  
  ----------------------------------------------------------------------------
                                                           Hours        Hours 
                         --------- Hours Full --------   Above Full   Capacity
  Conduit                Both Ends  Upstream  Dnstream   Normal Flow   Limited
  ----------------------------------------------------------------------------
  C6                          0.01      0.76      0.01      0.67         0.01
  C19                         0.01      0.01      0.12      0.01         0.01
  C22                         0.01      0.01      0.20      0.01         0.01
  C10                         0.01      0.01      9.77      0.01         0.01
  C13                         0.01      0.01      9.60      0.01         0.01
  C18                         0.01      0.01      9.65      0.01         0.01
  C23                         0.01      0.01      8.58      0.01         0.01
  C4                          0.03      0.03     10.00      0.01         0.01
  C7                          0.01      0.01     10.15      0.01         0.01
  C5                          0.76      0.80      0.85      0.78         0.72
  C8                          0.01      0.39      0.01      0.40         0.01
  C15                         0.01      0.71      0.01      0.72         0.01
  C21                         0.01      0.60      0.01      0.58         0.01
  

  Analysis begun on:  Tue Sep 21 00:55:49 2021
  Analysis ended on:  Tue Sep 21 00:55:49 2021
  Total elapsed time: < 1 sec