
  EPA STORM WATER MANAGEMENT MODEL - VERSION 5.1 (Build 5.3.0.dev0)
  --------------------------------------------------------------

  WARNING 09: time series interval greater than recording interval for Rain Gage RG1
  WARNING 09: time series interval greater than recording interval for Rain Gage RG2
  WARNING 09: time series interval greater than recording interval for Rain Gage RG3
  WARNING 09: time series interval greater than recording interval for Rain Gage RG4
  
  *********************************************************
  NOTE: The summary statistics displayed in this report are
  based on results found at every computational time step,  
  not just on results from each reporting time step.
  *********************************************************
  
  ****************
  Analysis Options
  ****************
  Flow Units ............... CMS
  Process Models:
    Rainfall/Runoff ........ YES
    RDII ................... NO
    Snowmelt ............... NO
    Groundwater ............ NO
    Flow Routing ........... YES
    Ponding Allowed ........ YES
    Water Quality .......... NO
  Infiltration Method ...... HORTON
  Flow Routing Method ...... DYNWAVE
  Surcharge Method ......... EXTRAN
  Starting Date ............ 08/28/2015 00:00:00
  Ending Date .............. 08/28/2015 23:40:00
  Antecedent Dry Days ...... 0.0
  Report Time Step ......... 00:01:00
  Wet Time Step ............ 00:01:00
  Dry Time Step ............ 00:01:00
  Routing Time Step ........ 5.00 sec
  Variable Time Step ....... YES
  Maximum Trials ........... 8
  Number of Threads ........ 1
  Head Tolerance ........... 0.001500 m
  
  
  **************************        Volume         Depth
  Runoff Quantity Continuity     hectare-m            mm
  **************************     ---------       -------
  Total Precipitation ......         3.156        17.513
  Evaporation Loss .........         0.000         0.000
  Infiltration Loss ........         0.000         0.000
  Surface Runoff ...........         3.138        17.414
  Final Storage ............         0.024         0.131
  Continuity Error (%) .....        -0.187
  
  
  **************************        Volume        Volume
  Flow Routing Continuity        hectare-m      10^6 ltr
  **************************     ---------     ---------
  Dry Weather Inflow .......         0.758         7.576
  Wet Weather Inflow .......         3.138        31.380
  Groundwater Inflow .......         0.000         0.000
  RDII Inflow ..............         0.000         0.000
  External Inflow ..........         0.000         0.000
  External Outflow .........         1.517        15.171
  Flooding Loss ............         1.598        15.981
  Evaporation Loss .........         0.000         0.000
  Exfiltration Loss ........         0.000         0.000
  Initial Stored Volume ....         0.000         0.000
  Final Stored Volume ......         0.658         6.579
  Continuity Error (%) .....         3.146
  
  
  *************************
  Highest Continuity Errors
  *************************
  Node T2 (15.67%)
  Node T3 (10.06%)
  Node J12 (5.11%)
  Node T4 (4.77%)
  Node T5 (4.04%)
  
  
  ***************************
  Time-Step Critical Elements
  ***************************
  None
  
  
  ********************************
  Highest Flow Instability Indexes
  ********************************
  All links are stable.
  
  
  *************************
  Routing Time Step Summary
  *************************
  Minimum Time Step           :     1.53 sec
  Average Time Step           :     5.00 sec
  Maximum Time Step           :     5.00 sec
  Percent in Steady State     :     0.00
  Average Iterations per Step :     2.21
  Percent Not Converging      :     0.42
  
  
  ***************************
  Subcatchment Runoff Summary
  ***************************
  
  ------------------------------------------------------------------------------------------------------------------------------
                            Total      Total      Total      Total     Imperv       Perv      Total       Total     Peak  Runoff
                           Precip      Runon       Evap      Infil     Runoff     Runoff     Runoff      Runoff   Runoff   Coeff
  Subcatchment                 mm         mm         mm         mm         mm         mm         mm    10^6 ltr      CMS
  ------------------------------------------------------------------------------------------------------------------------------
  SC01                      14.91       0.00       0.00       0.00      14.77       0.00      14.77        4.87     0.96   0.991
  SC02                      20.61       0.00       0.00       0.00      20.54       0.00      20.54        4.67     1.32   0.996
  SC03                      21.28       0.00       0.00       0.00      21.27       0.00      21.27        3.83     1.45   1.000
  SC04                      20.61       0.00       0.00       0.00      20.47       0.00      20.47        1.41     0.30   0.993
  SC05                      14.91       0.00       0.00       0.00      14.76       0.00      14.76        2.30     0.44   0.990
  SC06                      14.40       0.00       0.00       0.00      14.32       0.00      14.32        4.66     0.82   0.995
  SC07                      20.61       0.00       0.00       0.00      20.47       0.00      20.47        0.97     0.21   0.993
  SC08                      21.28       0.00       0.00       0.00      21.18       0.00      21.18        5.93     1.62   0.996
  SC09                      14.40       0.00       0.00       0.00      14.35       0.00      14.35        0.99     0.23   0.996
  SC010                     14.91       0.00       0.00       0.00      14.74       0.00      14.74        1.73     0.30   0.989
  
  
  ******************
  Node Depth Summary
  ******************
  
  ---------------------------------------------------------------------------------
                                 Average  Maximum  Maximum  Time of Max    Reported
                                   Depth    Depth      HGL   Occurrence   Max Depth
  Node                 Type       Meters   Meters   Meters  days hr:min      Meters
  ---------------------------------------------------------------------------------
  J1                   JUNCTION     0.06     0.21    34.21     0  03:11        0.21
  J3                   JUNCTION     0.10     0.11    18.11     0  07:00        0.11
  CSO7                 JUNCTION     0.14     1.20    35.20     0  02:55        1.20
  J5                   JUNCTION     0.05     0.20    32.20     0  03:16        0.20
  CSO9                 JUNCTION     0.13     2.00    42.00     0  03:06        2.00
  J8                   JUNCTION     0.09     0.31    36.31     0  04:42        0.31
  CSO8                 JUNCTION     0.20     2.00    34.00     0  02:35        2.00
  J10                  JUNCTION     0.08     0.39    29.39     0  03:07        0.38
  J13                  JUNCTION     0.05     0.29    29.29     0  03:16        0.29
  J15                  JUNCTION     0.15     0.34    15.34     0  03:13        0.34
  J16                  JUNCTION     0.05     0.23    30.23     0  03:11        0.23
  CSO10                JUNCTION     0.11     1.00    31.00     0  03:01        1.00
  J12                  JUNCTION     0.86     1.06    27.06     0  04:32        1.06
  J4                   JUNCTION     0.12     1.51    34.51     0  04:38        0.75
  J6                   JUNCTION     0.06     0.07    25.07     0  05:17        0.07
  J2                   JUNCTION     0.07     0.08    25.08     0  07:08        0.08
  J19                  JUNCTION     0.14     0.17     8.17     0  06:30        0.17
  J9                   JUNCTION     0.09     0.11    29.11     0  05:34        0.11
  J14                  JUNCTION     0.10     0.11    20.11     0  22:55        0.11
  J17                  JUNCTION     0.05     0.05    20.05     0  08:40        0.05
  J7                   JUNCTION     0.07     0.23    39.23     0  04:48        0.23
  J11                  JUNCTION     0.08     0.30    31.30     0  03:49        0.30
  J18                  JUNCTION     0.05     0.16    29.16     0  03:19        0.16
  Out_to_WWTP          OUTFALL      0.14     0.17     6.17     0  07:30        0.17
  T5                   STORAGE      3.18     5.00    32.00     0  04:41        5.00
  T4                   STORAGE      3.43     5.00    32.00     0  03:42        5.00
  T6                   STORAGE      3.17     5.00    36.00     0  03:46        5.00
  T3                   STORAGE      4.34     5.00    27.00     0  03:48        5.00
  T2                   STORAGE      4.32     5.00    26.00     0  03:27        5.00
  T1                   STORAGE      2.52     5.00    15.00     0  03:25        5.00
  
  
  *******************
  Node Inflow Summary
  *******************
  
  -------------------------------------------------------------------------------------------------
                                  Maximum  Maximum                  Lateral       Total        Flow
                                  Lateral    Total  Time of Max      Inflow      Inflow     Balance
                                   Inflow   Inflow   Occurrence      Volume      Volume       Error
  Node                 Type           CMS      CMS  days hr:min    10^6 ltr    10^6 ltr     Percent
  -------------------------------------------------------------------------------------------------
  J1                   JUNCTION     0.444    0.444     0  03:11         3.4         3.4      -0.052
  J3                   JUNCTION     0.000    0.127     0  07:00           0        8.86       0.280
  CSO7                 JUNCTION     0.210    0.210     0  03:16        1.54        1.54       0.007
  J5                   JUNCTION     0.303    0.376     0  03:16        1.66        2.96      -0.039
  CSO9                 JUNCTION     0.231    0.231     0  04:36        1.37        1.37      -0.016
  J8                   JUNCTION     0.828    0.949     0  04:41        6.49        7.82      -0.050
  CSO8                 JUNCTION     1.619    1.619     0  03:11        6.38        6.38      -0.024
  J10                  JUNCTION     1.457    1.943     0  03:06        4.58        9.64      -0.104
  J13                  JUNCTION     1.325    1.325     0  03:11        5.58        5.58      -0.138
  J15                  JUNCTION     0.000    1.170     0  03:11           0        17.9       0.313
  J16                  JUNCTION     0.966    0.966     0  03:11        5.95        5.95      -0.077
  CSO10                JUNCTION     0.304    0.304     0  03:11           2           2      -0.040
  J12                  JUNCTION     0.000    1.644     0  03:07           0        14.2       5.382
  J4                   JUNCTION     0.000    0.085     0  04:36           0         1.3       0.024
  J6                   JUNCTION     0.000    0.028     0  03:43           0         1.8       0.161
  J2                   JUNCTION     0.000    0.039     0  04:41           0        2.52       0.130
  J19                  JUNCTION     0.000    0.271     0  03:25           0        15.2       0.048
  J9                   JUNCTION     0.000    0.075     0  03:46           0         4.6       0.207
  J14                  JUNCTION     0.000    0.060     0  03:48           0        4.54       0.097
  J17                  JUNCTION     0.000    0.015     0  03:27           0        1.14       0.356
  J7                   JUNCTION     0.000    0.127     0  04:48           0        1.33       0.074
  J11                  JUNCTION     0.000    0.486     0  03:49           0        5.06       0.060
  J18                  JUNCTION     0.000    0.202     0  03:19           0        1.96       0.004
  Out_to_WWTP          OUTFALL      0.000    0.271     0  06:31           0        15.2       0.000
  T5                   STORAGE      0.000    0.407     0  03:11           0         3.4       4.210
  T4                   STORAGE      0.000    0.355     0  03:17           0        2.96       5.012
  T6                   STORAGE      0.000    0.901     0  04:42           0        7.82       2.472
  T3                   STORAGE      0.000    1.507     0  03:13           0        13.5      11.183
  T2                   STORAGE      0.000    1.225     0  03:16           0        5.59      18.582
  T1                   STORAGE      0.000    1.040     0  03:13           0        17.8       1.172
  
  
  **********************
  Node Surcharge Summary
  **********************
  
  Surcharging occurs when water rises above the top of the highest conduit.
  ---------------------------------------------------------------------
                                               Max. Height   Min. Depth
                                   Hours       Above Crown    Below Rim
  Node                 Type      Surcharged         Meters       Meters
  ---------------------------------------------------------------------
  CSO7                 JUNCTION        1.49          0.945        0.000
  CSO9                 JUNCTION        1.08          1.682        0.000
  CSO8                 JUNCTION        1.70          1.547        0.000
  CSO10                JUNCTION        0.57          0.560        0.000
  J4                   JUNCTION        1.48          1.209        0.491
  
  
  *********************
  Node Flooding Summary
  *********************
  
  Flooding refers to all water that overflows a node, whether it ponds or not.
  --------------------------------------------------------------------------
                                                             Total   Maximum
                                 Maximum   Time of Max       Flood    Ponded
                        Hours       Rate    Occurrence      Volume     Depth
  Node                 Flooded       CMS   days hr:min    10^6 ltr    Meters
  --------------------------------------------------------------------------
  CSO7                    1.29     0.136      0  03:16       0.240     0.000
  CSO9                    0.34     0.106      0  04:36       0.045     0.000
  CSO8                    1.20     1.127      0  03:11       1.318     0.000
  CSO10                   0.34     0.101      0  03:11       0.039     0.000
  T5                      1.89     0.284      0  06:41       0.609     0.000
  T4                      4.13     0.229      0  04:42       0.831     0.000
  T6                      4.83     0.825      0  04:42       2.905     0.000
  T3                     13.60     1.244      0  04:35       5.057     0.000
  T2                     11.55     0.969      0  03:27       2.647     0.000
  T1                      2.43     0.662      0  06:43       2.289     0.000
  
  
  **********************
  Storage Volume Summary
  **********************
  
  --------------------------------------------------------------------------------------------------
                         Average     Avg  Evap Exfil       Maximum     Max    Time of Max    Maximum
                          Volume    Pcnt  Pcnt  Pcnt        Volume    Pcnt     Occurrence    Outflow
  Storage Unit           1000 m3    Full  Loss  Loss       1000 m3    Full    days hr:min        CMS
  --------------------------------------------------------------------------------------------------
  T5                       0.318      64     0     0         0.500     100       0  04:41      0.039
  T4                       0.343      69     0     0         0.500     100       0  03:42      0.028
  T6                       0.380      63     0     0         0.600     100       0  03:46      0.075
  T3                       2.259      87     0     0         2.600     100       0  03:48      0.113
  T2                       0.863      86     0     0         1.000     100       0  03:27      0.015
  T1                       0.353      50     0     0         0.700     100       0  03:25      0.271
  
  
  ***********************
  Outfall Loading Summary
  ***********************
  
  -----------------------------------------------------------
                         Flow       Avg       Max       Total
                         Freq      Flow      Flow      Volume
  Outfall Node           Pcnt       CMS       CMS    10^6 ltr
  -----------------------------------------------------------
  Out_to_WWTP           99.54     0.179     0.271      15.171
  -----------------------------------------------------------
  System                99.54     0.179     0.271      15.171
  
  
  ********************
  Link Flow Summary
  ********************
  
  -----------------------------------------------------------------------------
                                 Maximum  Time of Max   Maximum    Max/    Max/
                                  |Flow|   Occurrence   |Veloc|    Full    Full
  Link                 Type          CMS  days hr:min     m/sec    Flow   Depth
  -----------------------------------------------------------------------------
  C1                   CONDUIT     0.039     0  07:08      1.06    0.01    0.10
  C6                   CONDUIT     0.074     0  03:16      1.29    1.17    0.83
  C2                   CONDUIT     0.028     0  05:17      1.02    0.03    0.16
  C9                   CONDUIT     0.127     0  04:49      1.30    0.43    0.54
  C16                  CONDUIT     0.492     0  03:26      1.81    0.05    0.17
  C3                   CONDUIT     0.060     0  17:19      1.42    0.02    0.11
  C19                  CONDUIT     0.015     0  04:52      0.45    0.01    0.19
  C11                  CONDUIT     0.127     0  07:00      1.49    0.01    0.11
  C20                  CONDUIT     0.880     0  03:11      3.60    0.03    0.14
  C22                  CONDUIT     0.202     0  03:19      1.59    0.09    0.32
  C12                  CONDUIT     0.075     0  05:34      0.67    0.01    0.29
  C17                  CONDUIT     1.611     0  03:07      3.91    0.08    0.33
  C10                  CONDUIT     0.901     0  04:42      1.22    0.09    0.60
  C13                  CONDUIT     1.507     0  03:13      1.40    0.09    0.76
  C18                  CONDUIT     1.225     0  03:16      1.37    0.05    0.57
  C23                  CONDUIT     1.040     0  03:13      1.43    0.11    0.61
  C4                   CONDUIT     0.407     0  03:11      1.48    0.10    0.61
  C7                   CONDUIT     0.355     0  03:17      1.11    0.09    0.60
  C14                  CONDUIT     0.271     0  06:31      2.08    0.02    0.09
  C5                   CONDUIT     0.085     0  04:36      1.67    1.45    1.00
  C8                   CONDUIT     0.127     0  04:48      1.93    1.60    0.86
  C15                  CONDUIT     0.486     0  03:49      3.72    1.55    0.83
  C21                  CONDUIT     0.202     0  03:19      1.87    1.16    0.69
  V4                   ORIFICE     0.028     0  03:43                      0.35
  V5                   ORIFICE     0.039     0  04:41                      1.00
  V1                   ORIFICE     0.271     0  03:25                      1.00
  V6                   ORIFICE     0.075     0  03:46                      0.43
  V3                   ORIFICE     0.060     0  03:48                      0.32
  V2                   ORIFICE     0.015     0  03:27                      0.11
  
  
  ***************************
  Flow Classification Summary
  ***************************
  
  -------------------------------------------------------------------------------------
                      Adjusted    ---------- Fraction of Time in Flow Class ---------- 
                       /Actual         Up    Down  Sub   Sup   Up    Down  Norm  Inlet 
  Conduit               Length    Dry  Dry   Dry   Crit  Crit  Crit  Crit  Ltd   Ctrl  
  -------------------------------------------------------------------------------------
  C1                      1.00   0.00  0.00  0.00  0.02  0.98  0.00  0.00  0.97  0.00
  C6                      1.00   0.00  0.00  0.00  0.09  0.91  0.00  0.00  0.00  0.00
  C2                      1.00   0.00  0.00  0.00  0.14  0.86  0.00  0.00  0.99  0.00
  C9                      1.00   0.00  0.00  0.00  1.00  0.00  0.00  0.00  1.00  0.00
  C16                     1.00   0.00  0.00  0.00  0.70  0.30  0.00  0.00  0.59  0.00
  C3                      1.00   0.00  0.00  0.00  0.02  0.98  0.00  0.00  0.78  0.00
  C19                     1.00   0.00  0.00  0.00  1.00  0.00  0.00  0.00  1.00  0.00
  C11                     1.00   0.00  0.00  0.00  0.17  0.83  0.00  0.00  1.00  0.00
  C20                     1.00   0.00  0.00  0.00  0.74  0.26  0.00  0.00  0.99  0.00
  C22                     1.00   0.00  0.00  0.00  0.88  0.12  0.00  0.00  1.00  0.00
  C12                     1.00   0.00  0.00  0.00  0.95  0.05  0.00  0.00  1.00  0.00
  C17                     1.00   0.00  0.00  0.00  0.89  0.11  0.00  0.00  0.96  0.00
  C10                     1.00   0.00  0.00  0.00  0.98  0.02  0.00  0.00  0.98  0.00
  C13                     1.00   0.00  0.00  0.00  0.95  0.05  0.00  0.00  0.11  0.00
  C18                     1.00   0.00  0.00  0.00  0.98  0.02  0.00  0.00  0.99  0.00
  C23                     1.00   0.00  0.00  0.00  0.96  0.04  0.00  0.00  0.98  0.00
  C4                      1.00   0.00  0.00  0.00  0.98  0.02  0.00  0.00  0.99  0.00
  C7                      1.00   0.00  0.00  0.00  0.96  0.04  0.00  0.00  0.98  0.00
  C14                     1.00   0.00  0.00  0.00  0.00  1.00  0.00  0.00  0.65  0.00
  C5                      1.00   0.00  0.00  0.00  0.94  0.06  0.00  0.00  0.91  0.00
  C8                      1.00   0.00  0.00  0.00  0.18  0.82  0.00  0.00  0.01  0.00
  C15                     1.00   0.00  0.00  0.00  0.01  0.99  0.00  0.00  0.01  0.00
  C21                     1.00   0.00  0.00  0.00  0.00  1.00  0.00  0.00  0.00  0.00
  
  
  *************************
  Conduit Surcharge Summary
  *************************
  
  ----------------------------------------------------------------------------
                                                           Hours        Hours 
                         --------- Hours Full --------   Above Full   Capacity
  Conduit                Both Ends  Upstream  Dnstream   Normal Flow   Limited
  ----------------------------------------------------------------------------
  C6                          0.01      1.48      0.01      1.30         0.01
  C10                         0.01      0.01     19.16      0.01         0.01
  C13                         0.01      0.01     20.62      0.01         0.01
  C18                         0.01      0.01     20.60      0.01         0.01
  C23                         0.01      0.01     16.69      0.01         0.01
  C4                          0.01      0.01     20.70      0.01         0.01
  C7                          0.01      0.01     20.68      0.01         0.01
  C5                          1.46      1.49      1.65      1.55         1.41
  C8                          0.01      1.08      0.01      1.10         0.01
  C15                         0.01      1.70      0.01      1.75         0.01
  C21                         0.01      0.57      0.01      0.52         0.01
  

  Analysis begun on:  Tue Sep 21 01:39:12 2021
  Analysis ended on:  Tue Sep 21 01:39:13 2021
  Total elapsed time: 00:00:01