
  EPA STORM WATER MANAGEMENT MODEL - VERSION 5.1 (Build 5.3.0.dev0)
  --------------------------------------------------------------

  WARNING 09: time series interval greater than recording interval for Rain Gage RG1
  WARNING 09: time series interval greater than recording interval for Rain Gage RG2
  WARNING 09: time series interval greater than recording interval for Rain Gage RG3
  WARNING 09: time series interval greater than recording interval for Rain Gage RG4
  
  *********************************************************
  NOTE: The summary statistics displayed in this report are
  based on results found at every computational time step,  
  not just on results from each reporting time step.
  *********************************************************
  
  ****************
  Analysis Options
  ****************
  Flow Units ............... CMS
  Process Models:
    Rainfall/Runoff ........ YES
    RDII ................... NO
    Snowmelt ............... NO
    Groundwater ............ NO
    Flow Routing ........... YES
    Ponding Allowed ........ YES
    Water Quality .......... NO
  Infiltration Method ...... HORTON
  Flow Routing Method ...... DYNWAVE
  Surcharge Method ......... EXTRAN
  Starting Date ............ 08/28/2015 00:00:00
  Ending Date .............. 08/28/2015 23:40:00
  Antecedent Dry Days ...... 0.0
  Report Time Step ......... 00:01:00
  Wet Time Step ............ 00:01:00
  Dry Time Step ............ 00:01:00
  Routing Time Step ........ 5.00 sec
  Variable Time Step ....... YES
  Maximum Trials ........... 8
  Number of Threads ........ 1
  Head Tolerance ........... 0.001500 m
  
  
  **************************        Volume         Depth
  Runoff Quantity Continuity     hectare-m            mm
  **************************     ---------       -------
  Total Precipitation ......         3.059        16.977
  Evaporation Loss .........         0.000         0.000
  Infiltration Loss ........         0.000         0.000
  Surface Runoff ...........         2.964        16.446
  Final Storage ............         0.098         0.543
  Continuity Error (%) .....        -0.076
  
  
  **************************        Volume        Volume
  Flow Routing Continuity        hectare-m      10^6 ltr
  **************************     ---------     ---------
  Dry Weather Inflow .......         0.758         7.576
  Wet Weather Inflow .......         2.963        29.628
  Groundwater Inflow .......         0.000         0.000
  RDII Inflow ..............         0.000         0.000
  External Inflow ..........         0.000         0.000
  External Outflow .........         1.006        10.058
  Flooding Loss ............         1.620        16.203
  Evaporation Loss .........         0.000         0.000
  Exfiltration Loss ........         0.000         0.000
  Initial Stored Volume ....         0.000         0.000
  Final Stored Volume ......         0.829         8.290
  Continuity Error (%) .....         7.130
  
  
  *************************
  Highest Continuity Errors
  *************************
  Node T2 (30.32%)
  Node T4 (17.51%)
  Node T5 (16.78%)
  Node T3 (8.45%)
  Node T6 (7.76%)
  
  
  ***************************
  Time-Step Critical Elements
  ***************************
  None
  
  
  ********************************
  Highest Flow Instability Indexes
  ********************************
  Link C15 (2)
  Link C17 (1)
  
  
  *************************
  Routing Time Step Summary
  *************************
  Minimum Time Step           :     4.50 sec
  Average Time Step           :     5.00 sec
  Maximum Time Step           :     5.00 sec
  Percent in Steady State     :     0.00
  Average Iterations per Step :     2.15
  Percent Not Converging      :     0.45
  
  
  ***************************
  Subcatchment Runoff Summary
  ***************************
  
  ------------------------------------------------------------------------------------------------------------------------------
                            Total      Total      Total      Total     Imperv       Perv      Total       Total     Peak  Runoff
                           Precip      Runon       Evap      Infil     Runoff     Runoff     Runoff      Runoff   Runoff   Coeff
  Subcatchment                 mm         mm         mm         mm         mm         mm         mm    10^6 ltr      CMS
  ------------------------------------------------------------------------------------------------------------------------------
  SC01                       8.79       0.00       0.00       0.00       8.56       0.00       8.56        2.82     0.31   0.974
  SC02                       9.91       0.00       0.00       0.00       9.63       0.00       9.63        2.19     0.17   0.972
  SC03                      27.76       0.00       0.00       0.00      27.33       0.00      27.33        4.92     0.30   0.984
  SC04                       9.91       0.00       0.00       0.00       9.43       0.00       9.43        0.65     0.04   0.951
  SC05                       8.79       0.00       0.00       0.00       8.55       0.00       8.55        1.33     0.14   0.972
  SC06                      23.09       0.00       0.00       0.00      22.01       0.00      22.01        7.17     0.36   0.953
  SC07                       9.91       0.00       0.00       0.00       9.43       0.00       9.43        0.45     0.03   0.951
  SC08                      27.76       0.00       0.00       0.00      27.01       0.00      27.01        7.56     0.41   0.973
  SC09                      23.09       0.00       0.00       0.00      22.36       0.00      22.36        1.54     0.08   0.968
  SC010                      8.79       0.00       0.00       0.00       8.50       0.00       8.50        1.00     0.10   0.968
  
  
  ******************
  Node Depth Summary
  ******************
  
  ---------------------------------------------------------------------------------
                                 Average  Maximum  Maximum  Time of Max    Reported
                                   Depth    Depth      HGL   Occurrence   Max Depth
  Node                 Type       Meters   Meters   Meters  days hr:min      Meters
  ---------------------------------------------------------------------------------
  J1                   JUNCTION     0.05     0.13    34.13     0  16:57        0.13
  J3                   JUNCTION     0.08     0.11    18.11     0  21:22        0.11
  CSO7                 JUNCTION     0.07     0.14    34.14     0  16:51        0.14
  J5                   JUNCTION     0.05     0.09    32.09     0  16:57        0.09
  CSO9                 JUNCTION     0.11     0.83    40.83     0  17:01        0.49
  J8                   JUNCTION     0.10     0.22    36.22     0  17:12        0.22
  CSO8                 JUNCTION     0.16     2.00    34.00     0  16:31        1.84
  J10                  JUNCTION     0.10     0.24    29.24     0  16:52        0.24
  J13                  JUNCTION     0.05     0.11    29.11     0  16:52        0.11
  J15                  JUNCTION     0.11     0.24    15.24     0  16:59        0.24
  J16                  JUNCTION     0.05     0.14    30.14     0  16:57        0.14
  CSO10                JUNCTION     0.08     0.26    30.26     0  16:56        0.26
  J12                  JUNCTION     0.40     1.03    27.03     0  16:10        1.03
  J4                   JUNCTION     0.09     0.17    33.17     0  16:58        0.17
  J6                   JUNCTION     0.05     0.07    25.07     0  21:52        0.07
  J2                   JUNCTION     0.05     0.08    25.08     0  21:18        0.08
  J19                  JUNCTION     0.10     0.17     8.17     0  17:28        0.17
  J9                   JUNCTION     0.08     0.11    29.11     0  21:36        0.11
  J14                  JUNCTION     0.07     0.11    20.11     0  16:05        0.11
  J17                  JUNCTION     0.03     0.05    20.05     0  22:24        0.05
  J7                   JUNCTION     0.08     0.18    39.18     0  17:03        0.18
  J11                  JUNCTION     0.10     0.26    31.26     0  16:52        0.26
  J18                  JUNCTION     0.04     0.11    29.11     0  16:58        0.11
  Out_to_WWTP          OUTFALL      0.10     0.17     6.17     0  18:13        0.17
  T5                   STORAGE      1.74     5.00    32.00     0  21:06        5.00
  T4                   STORAGE      1.67     5.00    32.00     0  21:12        5.00
  T6                   STORAGE      2.31     5.00    36.00     0  15:18        5.00
  T3                   STORAGE      2.23     5.00    27.00     0  16:04        5.00
  T2                   STORAGE      1.80     5.00    26.00     0  19:37        5.00
  T1                   STORAGE      1.62     5.00    15.00     0  17:27        5.00
  
  
  *******************
  Node Inflow Summary
  *******************
  
  -------------------------------------------------------------------------------------------------
                                  Maximum  Maximum                  Lateral       Total        Flow
                                  Lateral    Total  Time of Max      Inflow      Inflow     Balance
                                   Inflow   Inflow   Occurrence      Volume      Volume       Error
  Node                 Type           CMS      CMS  days hr:min    10^6 ltr    10^6 ltr     Percent
  -------------------------------------------------------------------------------------------------
  J1                   JUNCTION     0.159    0.159     0  16:56        2.43        2.43       0.034
  J3                   JUNCTION     0.000    0.127     0  21:19           0        5.48       0.508
  CSO7                 JUNCTION     0.036    0.036     0  16:51        1.01        1.01       0.031
  J5                   JUNCTION     0.045    0.077     0  16:56       0.898        1.91       0.098
  CSO9                 JUNCTION     0.089    0.089     0  17:01        1.92        1.92       0.044
  J8                   JUNCTION     0.382    0.460     0  17:11        8.99        10.9       0.168
  CSO8                 JUNCTION     0.423    0.423     0  16:51        8.01        8.01       0.010
  J10                  JUNCTION     0.310    0.656     0  16:51        5.67        13.7       0.158
  J13                  JUNCTION     0.184    0.184     0  16:51         3.1         3.1       0.047
  J15                  JUNCTION     0.000    0.518     0  16:57           0        11.3       0.579
  J16                  JUNCTION     0.328    0.328     0  16:56         3.9         3.9       0.048
  CSO10                JUNCTION     0.105    0.105     0  16:56        1.27        1.27       0.045
  J12                  JUNCTION     0.000    0.698     0  16:52           0        17.1       5.097
  J4                   JUNCTION     0.000    0.035     0  16:52           0        1.01       0.223
  J6                   JUNCTION     0.000    0.028     0  21:12           0         1.1       0.363
  J2                   JUNCTION     0.000    0.039     0  21:06           0        1.61       0.330
  J19                  JUNCTION     0.000    0.271     0  17:27           0        10.1       0.104
  J9                   JUNCTION     0.000    0.075     0  15:18           0        3.48       0.481
  J14                  JUNCTION     0.000    0.060     0  16:04           0        2.79       0.157
  J17                  JUNCTION     0.000    0.015     0  19:37           0       0.634       0.576
  J7                   JUNCTION     0.000    0.087     0  17:01           0        1.92       0.310
  J11                  JUNCTION     0.000    0.424     0  16:51           0        8.01       0.288
  J18                  JUNCTION     0.000    0.101     0  16:56           0        1.27       0.147
  Out_to_WWTP          OUTFALL      0.000    0.271     0  17:28           0        10.1       0.000
  T5                   STORAGE      0.000    0.149     0  16:57           0        2.43      20.167
  T4                   STORAGE      0.000    0.076     0  16:57           0        1.91      21.231
  T6                   STORAGE      0.000    0.443     0  17:12           0        10.9       8.417
  T3                   STORAGE      0.000    0.810     0  16:39           0        16.3       9.231
  T2                   STORAGE      0.000    0.170     0  16:52           0         3.1      43.517
  T1                   STORAGE      0.000    0.490     0  16:59           0        11.2       4.827
  
  
  **********************
  Node Surcharge Summary
  **********************
  
  Surcharging occurs when water rises above the top of the highest conduit.
  ---------------------------------------------------------------------
                                               Max. Height   Min. Depth
                                   Hours       Above Crown    Below Rim
  Node                 Type      Surcharged         Meters       Meters
  ---------------------------------------------------------------------
  CSO9                 JUNCTION        0.13          0.512        1.170
  CSO8                 JUNCTION        1.16          1.547        0.000
  
  
  *********************
  Node Flooding Summary
  *********************
  
  Flooding refers to all water that overflows a node, whether it ponds or not.
  --------------------------------------------------------------------------
                                                             Total   Maximum
                                 Maximum   Time of Max       Flood    Ponded
                        Hours       Rate    Occurrence      Volume     Depth
  Node                 Flooded       CMS   days hr:min    10^6 ltr    Meters
  --------------------------------------------------------------------------
  CSO8                    0.01     0.035      0  16:31       0.000     0.000
  T5                      0.20     0.007      0  21:07       0.003     0.000
  T4                      0.81     0.011      0  21:12       0.016     0.000
  T6                      8.35     0.399      0  17:02       5.968     0.000
  T3                      7.60     0.750      0  16:39       9.503     0.000
  T2                      3.16     0.086      0  20:32       0.530     0.000
  T1                      0.63     0.128      0  17:33       0.184     0.000
  
  
  **********************
  Storage Volume Summary
  **********************
  
  --------------------------------------------------------------------------------------------------
                         Average     Avg  Evap Exfil       Maximum     Max    Time of Max    Maximum
                          Volume    Pcnt  Pcnt  Pcnt        Volume    Pcnt     Occurrence    Outflow
  Storage Unit           1000 m3    Full  Loss  Loss       1000 m3    Full    days hr:min        CMS
  --------------------------------------------------------------------------------------------------
  T5                       0.174      35     0     0         0.500     100       0  21:06      0.039
  T4                       0.167      33     0     0         0.500     100       0  21:12      0.028
  T6                       0.277      46     0     0         0.600     100       0  15:18      0.075
  T3                       1.157      45     0     0         2.600     100       0  16:04      0.071
  T2                       0.359      36     0     0         1.000     100       0  19:37      0.015
  T1                       0.227      32     0     0         0.700     100       0  17:27      0.271
  
  
  ***********************
  Outfall Loading Summary
  ***********************
  
  -----------------------------------------------------------
                         Flow       Avg       Max       Total
                         Freq      Flow      Flow      Volume
  Outfall Node           Pcnt       CMS       CMS    10^6 ltr
  -----------------------------------------------------------
  Out_to_WWTP           99.43     0.119     0.271      10.058
  -----------------------------------------------------------
  System                99.43     0.119     0.271      10.058
  
  
  ********************
  Link Flow Summary
  ********************
  
  -----------------------------------------------------------------------------
                                 Maximum  Time of Max   Maximum    Max/    Max/
                                  |Flow|   Occurrence   |Veloc|    Full    Full
  Link                 Type          CMS  days hr:min     m/sec    Flow   Depth
  -----------------------------------------------------------------------------
  C1                   CONDUIT     0.039     0  21:18      1.04    0.01    0.10
  C6                   CONDUIT     0.034     0  16:58      1.13    0.54    0.44
  C2                   CONDUIT     0.028     0  21:51      1.00    0.03    0.16
  C9                   CONDUIT     0.080     0  17:03      1.12    0.27    0.40
  C16                  CONDUIT     0.380     0  16:53      1.65    0.04    0.13
  C3                   CONDUIT     0.060     0  17:09      1.38    0.02    0.11
  C19                  CONDUIT     0.015     0  20:48      0.41    0.01    0.14
  C11                  CONDUIT     0.127     0  21:22      1.54    0.01    0.09
  C20                  CONDUIT     0.306     0  16:57      2.09    0.01    0.09
  C22                  CONDUIT     0.095     0  16:58      1.18    0.04    0.22
  C12                  CONDUIT     0.075     0  21:36      0.75    0.01    0.28
  C17                  CONDUIT     0.626     0  16:53      2.32    0.03    0.31
  C10                  CONDUIT     0.443     0  17:12      0.94    0.05    0.57
  C13                  CONDUIT     0.810     0  16:39      0.85    0.05    0.76
  C18                  CONDUIT     0.170     0  16:52      1.01    0.01    0.53
  C23                  CONDUIT     0.490     0  16:59      0.84    0.05    0.58
  C4                   CONDUIT     0.149     0  16:57      1.13    0.04    0.56
  C7                   CONDUIT     0.076     0  16:57      0.83    0.02    0.55
  C14                  CONDUIT     0.271     0  17:28      2.08    0.02    0.09
  C5                   CONDUIT     0.035     0  16:52      1.10    0.60    0.61
  C8                   CONDUIT     0.087     0  17:01      1.33    1.10    0.78
  C15                  CONDUIT     0.424     0  16:51      3.14    1.35    0.79
  C21                  CONDUIT     0.101     0  16:56      1.64    0.58    0.42
  V4                   ORIFICE     0.028     0  21:12                      0.35
  V5                   ORIFICE     0.039     0  21:06                      1.00
  V1                   ORIFICE     0.271     0  17:27                      1.00
  V6                   ORIFICE     0.075     0  15:18                      0.43
  V3                   ORIFICE     0.060     0  16:04                      0.32
  V2                   ORIFICE     0.015     0  19:37                      0.11
  
  
  ***************************
  Flow Classification Summary
  ***************************
  
  -------------------------------------------------------------------------------------
                      Adjusted    ---------- Fraction of Time in Flow Class ---------- 
                       /Actual         Up    Down  Sub   Sup   Up    Down  Norm  Inlet 
  Conduit               Length    Dry  Dry   Dry   Crit  Crit  Crit  Crit  Ltd   Ctrl  
  -------------------------------------------------------------------------------------
  C1                      1.00   0.00  0.00  0.00  0.03  0.97  0.00  0.00  0.96  0.00
  C6                      1.00   0.00  0.00  0.00  0.01  0.99  0.00  0.00  0.00  0.00
  C2                      1.00   0.00  0.00  0.00  0.13  0.87  0.00  0.00  0.97  0.00
  C9                      1.00   0.00  0.00  0.00  1.00  0.00  0.00  0.00  1.00  0.00
  C16                     1.00   0.00  0.25  0.00  0.25  0.49  0.00  0.00  0.22  0.00
  C3                      1.00   0.00  0.00  0.00  0.03  0.96  0.00  0.00  0.86  0.00
  C19                     1.00   0.00  0.00  0.00  1.00  0.00  0.00  0.00  1.00  0.00
  C11                     1.00   0.00  0.00  0.00  0.10  0.90  0.00  0.00  1.00  0.00
  C20                     1.00   0.00  0.00  0.00  0.61  0.39  0.00  0.00  0.99  0.00
  C22                     1.00   0.00  0.00  0.00  0.98  0.02  0.00  0.00  1.00  0.00
  C12                     1.00   0.00  0.00  0.00  0.71  0.28  0.00  0.00  0.94  0.00
  C17                     1.00   0.00  0.00  0.00  0.59  0.41  0.00  0.00  0.99  0.00
  C10                     1.00   0.00  0.00  0.00  0.85  0.15  0.00  0.00  0.98  0.00
  C13                     1.00   0.00  0.00  0.00  0.88  0.12  0.00  0.00  0.57  0.00
  C18                     1.00   0.00  0.00  0.00  0.96  0.04  0.00  0.00  0.98  0.00
  C23                     1.00   0.00  0.00  0.00  0.76  0.24  0.00  0.00  0.96  0.00
  C4                      1.00   0.00  0.00  0.00  0.82  0.18  0.00  0.00  0.98  0.00
  C7                      1.00   0.00  0.00  0.00  0.84  0.16  0.00  0.00  0.97  0.00
  C14                     1.00   0.00  0.00  0.00  0.00  1.00  0.00  0.00  0.43  0.00
  C5                      1.00   0.00  0.00  0.00  0.94  0.06  0.00  0.00  0.99  0.00
  C8                      1.00   0.00  0.00  0.00  0.20  0.80  0.00  0.00  0.00  0.00
  C15                     1.00   0.25  0.00  0.00  0.00  0.75  0.00  0.00  0.00  0.00
  C21                     1.00   0.00  0.00  0.00  0.00  1.00  0.00  0.00  0.00  0.00
  
  
  *************************
  Conduit Surcharge Summary
  *************************
  
  ----------------------------------------------------------------------------
                                                           Hours        Hours 
                         --------- Hours Full --------   Above Full   Capacity
  Conduit                Both Ends  Upstream  Dnstream   Normal Flow   Limited
  ----------------------------------------------------------------------------
  C10                         0.01      0.01     10.97      0.01         0.01
  C13                         0.01      0.01     10.05      0.01         0.01
  C18                         0.01      0.01      7.95      0.01         0.01
  C23                         0.01      0.01      8.29      0.01         0.01
  C4                          0.01      0.01     10.23      0.01         0.01
  C7                          0.01      0.01     10.92      0.01         0.01
  C8                          0.01      0.13      0.01      0.11         0.01
  C15                         0.01      1.16      0.01      1.46         0.01
  

  Analysis begun on:  Tue Sep 21 01:59:24 2021
  Analysis ended on:  Tue Sep 21 01:59:24 2021
  Total elapsed time: < 1 sec