
  EPA STORM WATER MANAGEMENT MODEL - VERSION 5.1 (Build 5.3.0.dev0)
  --------------------------------------------------------------

  WARNING 09: time series interval greater than recording interval for Rain Gage RG1
  WARNING 09: time series interval greater than recording interval for Rain Gage RG2
  WARNING 09: time series interval greater than recording interval for Rain Gage RG3
  WARNING 09: time series interval greater than recording interval for Rain Gage RG4
  
  *********************************************************
  NOTE: The summary statistics displayed in this report are
  based on results found at every computational time step,  
  not just on results from each reporting time step.
  *********************************************************
  
  ****************
  Analysis Options
  ****************
  Flow Units ............... CMS
  Process Models:
    Rainfall/Runoff ........ YES
    RDII ................... NO
    Snowmelt ............... NO
    Groundwater ............ NO
    Flow Routing ........... YES
    Ponding Allowed ........ YES
    Water Quality .......... NO
  Infiltration Method ...... HORTON
  Flow Routing Method ...... DYNWAVE
  Surcharge Method ......... EXTRAN
  Starting Date ............ 08/28/2015 00:00:00
  Ending Date .............. 08/28/2015 23:40:00
  Antecedent Dry Days ...... 0.0
  Report Time Step ......... 00:01:00
  Wet Time Step ............ 00:01:00
  Dry Time Step ............ 00:01:00
  Routing Time Step ........ 5.00 sec
  Variable Time Step ....... YES
  Maximum Trials ........... 8
  Number of Threads ........ 1
  Head Tolerance ........... 0.001500 m
  
  
  **************************        Volume         Depth
  Runoff Quantity Continuity     hectare-m            mm
  **************************     ---------       -------
  Total Precipitation ......         0.458         2.540
  Evaporation Loss .........         0.000         0.000
  Infiltration Loss ........         0.000         0.000
  Surface Runoff ...........         0.355         1.969
  Final Storage ............         0.105         0.583
  Continuity Error (%) .....        -0.482
  
  
  **************************        Volume        Volume
  Flow Routing Continuity        hectare-m      10^6 ltr
  **************************     ---------     ---------
  Dry Weather Inflow .......         0.758         7.576
  Wet Weather Inflow .......         0.354         3.537
  Groundwater Inflow .......         0.000         0.000
  RDII Inflow ..............         0.000         0.000
  External Inflow ..........         0.000         0.000
  External Outflow .........         0.560         5.598
  Flooding Loss ............         0.000         0.001
  Evaporation Loss .........         0.000         0.000
  Exfiltration Loss ........         0.000         0.000
  Initial Stored Volume ....         0.000         0.000
  Final Stored Volume ......         0.491         4.907
  Continuity Error (%) .....         5.462
  
  
  *************************
  Highest Continuity Errors
  *************************
  Node T2 (34.89%)
  Node T3 (20.22%)
  Node T4 (12.97%)
  Node T5 (12.71%)
  Node T6 (9.81%)
  
  
  ***************************
  Time-Step Critical Elements
  ***************************
  None
  
  
  ********************************
  Highest Flow Instability Indexes
  ********************************
  All links are stable.
  
  
  *************************
  Routing Time Step Summary
  *************************
  Minimum Time Step           :     4.50 sec
  Average Time Step           :     5.00 sec
  Maximum Time Step           :     5.00 sec
  Percent in Steady State     :     0.00
  Average Iterations per Step :     2.02
  Percent Not Converging      :     0.04
  
  
  ***************************
  Subcatchment Runoff Summary
  ***************************
  
  ------------------------------------------------------------------------------------------------------------------------------
                            Total      Total      Total      Total     Imperv       Perv      Total       Total     Peak  Runoff
                           Precip      Runon       Evap      Infil     Runoff     Runoff     Runoff      Runoff   Runoff   Coeff
  Subcatchment                 mm         mm         mm         mm         mm         mm         mm    10^6 ltr      CMS
  ------------------------------------------------------------------------------------------------------------------------------
  SC01                       2.46       0.00       0.00       0.00       2.01       0.00       2.01        0.66     0.47   0.816
  SC02                       3.03       0.00       0.00       0.00       2.52       0.00       2.52        0.57     0.44   0.831
  SC03                       3.23       0.00       0.00       0.00       2.83       0.00       2.83        0.51     0.45   0.876
  SC04                       3.03       0.00       0.00       0.00       2.03       0.00       2.03        0.14     0.06   0.669
  SC05                       2.46       0.00       0.00       0.00       1.97       0.00       1.97        0.31     0.21   0.802
  SC06                       1.43       0.00       0.00       0.00       0.85       0.00       0.85        0.28     0.06   0.595
  SC07                       3.03       0.00       0.00       0.00       2.03       0.00       2.03        0.10     0.04   0.670
  SC08                       3.23       0.00       0.00       0.00       2.47       0.00       2.47        0.69     0.41   0.764
  SC09                       1.43       0.00       0.00       0.00       1.02       0.00       1.02        0.07     0.02   0.714
  SC010                      2.46       0.00       0.00       0.00       1.88       0.00       1.88        0.22     0.13   0.763
  
  
  ******************
  Node Depth Summary
  ******************
  
  ---------------------------------------------------------------------------------
                                 Average  Maximum  Maximum  Time of Max    Reported
                                   Depth    Depth      HGL   Occurrence   Max Depth
  Node                 Type       Meters   Meters   Meters  days hr:min      Meters
  ---------------------------------------------------------------------------------
  J1                   JUNCTION     0.04     0.15    34.15     0  22:32        0.15
  J3                   JUNCTION     0.06     0.09    18.09     0  23:40        0.09
  CSO7                 JUNCTION     0.06     0.17    34.17     0  22:32        0.17
  J5                   JUNCTION     0.04     0.10    32.10     0  22:39        0.10
  CSO9                 JUNCTION     0.06     0.12    40.12     0  22:33        0.12
  J8                   JUNCTION     0.06     0.10    36.10     0  22:41        0.10
  CSO8                 JUNCTION     0.04     2.00    34.00     0  22:51        1.09
  J10                  JUNCTION     0.04     0.24    29.24     0  22:56        0.24
  J13                  JUNCTION     0.03     0.16    29.16     0  22:32        0.16
  J15                  JUNCTION     0.09     0.24    15.24     0  22:36        0.24
  J16                  JUNCTION     0.03     0.16    30.16     0  22:32        0.16
  CSO10                JUNCTION     0.05     0.30    30.30     0  22:32        0.30
  J12                  JUNCTION     0.07     0.26    26.26     0  23:00        0.26
  J4                   JUNCTION     0.07     0.16    33.16     0  22:40        0.16
  J6                   JUNCTION     0.04     0.06    25.06     0  23:40        0.06
  J2                   JUNCTION     0.04     0.06    25.06     0  23:40        0.06
  J19                  JUNCTION     0.08     0.14     8.14     0  23:20        0.14
  J9                   JUNCTION     0.06     0.08    29.08     0  14:37        0.08
  J14                  JUNCTION     0.06     0.09    20.09     0  23:40        0.09
  J17                  JUNCTION     0.03     0.04    20.04     0  23:40        0.04
  J7                   JUNCTION     0.04     0.08    39.08     0  22:42        0.08
  J11                  JUNCTION     0.03     0.25    31.25     0  22:57        0.25
  J18                  JUNCTION     0.03     0.12    29.12     0  22:34        0.12
  Out_to_WWTP          OUTFALL      0.08     0.14     6.14     0  23:20        0.14
  T5                   STORAGE      0.61     1.68    28.68     0  23:40        1.68
  T4                   STORAGE      0.60     1.75    28.75     0  23:40        1.75
  T6                   STORAGE      0.75     1.35    32.35     0  14:18        1.35
  T3                   STORAGE      0.91     3.13    25.13     0  23:40        3.13
  T2                   STORAGE      0.74     2.59    23.59     0  23:40        2.59
  T1                   STORAGE      0.43     1.99    11.99     0  23:19        1.99
  
  
  *******************
  Node Inflow Summary
  *******************
  
  -------------------------------------------------------------------------------------------------
                                  Maximum  Maximum                  Lateral       Total        Flow
                                  Lateral    Total  Time of Max      Inflow      Inflow     Balance
                                   Inflow   Inflow   Occurrence      Volume      Volume       Error
  Node                 Type           CMS      CMS  days hr:min    10^6 ltr    10^6 ltr     Percent
  -------------------------------------------------------------------------------------------------
  J1                   JUNCTION     0.210    0.210     0  22:31         1.4         1.4       0.231
  J3                   JUNCTION     0.000    0.087     0  23:40           0        3.67       0.593
  CSO7                 JUNCTION     0.041    0.041     0  22:31       0.661       0.661       0.104
  J5                   JUNCTION     0.058    0.079     0  22:37       0.387        1.04       0.489
  CSO9                 JUNCTION     0.021    0.021     0  22:31       0.452       0.452       0.097
  J8                   JUNCTION     0.071    0.085     0  22:37        2.11        2.56       0.299
  CSO8                 JUNCTION     0.412    0.412     0  22:51        1.14        1.14       0.108
  J10                  JUNCTION     0.457    0.634     0  22:56        1.26        2.37       0.845
  J13                  JUNCTION     0.442    0.442     0  22:31        1.48        1.48       0.377
  J15                  JUNCTION     0.000    0.594     0  22:32           0        6.31       1.107
  J16                  JUNCTION     0.472    0.472     0  22:31        1.74        1.74       0.298
  CSO10                JUNCTION     0.129    0.129     0  22:31        0.49        0.49       0.282
  J12                  JUNCTION     0.000    0.651     0  22:57           0        4.48       1.165
  J4                   JUNCTION     0.000    0.040     0  22:32           0        0.66       0.800
  J6                   JUNCTION     0.000    0.017     0  23:40           0       0.728       0.388
  J2                   JUNCTION     0.000    0.023     0  23:40           0        1.05       0.363
  J19                  JUNCTION     0.000    0.170     0  23:19           0        5.61       0.159
  J9                   JUNCTION     0.000    0.039     0  14:20           0        2.14       0.459
  J14                  JUNCTION     0.000    0.047     0  23:40           0         1.9       0.195
  J17                  JUNCTION     0.000    0.011     0  23:40           0       0.442       0.651
  J7                   JUNCTION     0.000    0.021     0  22:37           0       0.451       0.701
  J11                  JUNCTION     0.000    0.406     0  22:51           0        1.13       2.180
  J18                  JUNCTION     0.000    0.122     0  22:32           0       0.489       1.033
  Out_to_WWTP          OUTFALL      0.000    0.170     0  23:20           0         5.6       0.000
  T5                   STORAGE      0.000    0.190     0  22:32           0         1.4      14.564
  T4                   STORAGE      0.000    0.077     0  22:39           0        1.04      14.904
  T6                   STORAGE      0.000    0.082     0  22:41           0        2.55      10.872
  T3                   STORAGE      0.000    0.596     0  23:00           0        4.43      25.342
  T2                   STORAGE      0.000    0.372     0  22:32           0        1.48      53.585
  T1                   STORAGE      0.000    0.494     0  22:36           0        6.24       6.018
  
  
  **********************
  Node Surcharge Summary
  **********************
  
  Surcharging occurs when water rises above the top of the highest conduit.
  ---------------------------------------------------------------------
                                               Max. Height   Min. Depth
                                   Hours       Above Crown    Below Rim
  Node                 Type      Surcharged         Meters       Meters
  ---------------------------------------------------------------------
  CSO8                 JUNCTION        0.13          1.547        0.000
  
  
  *********************
  Node Flooding Summary
  *********************
  
  Flooding refers to all water that overflows a node, whether it ponds or not.
  --------------------------------------------------------------------------
                                                             Total   Maximum
                                 Maximum   Time of Max       Flood    Ponded
                        Hours       Rate    Occurrence      Volume     Depth
  Node                 Flooded       CMS   days hr:min    10^6 ltr    Meters
  --------------------------------------------------------------------------
  CSO8                    0.01     0.120      0  22:51       0.001     0.000
  
  
  **********************
  Storage Volume Summary
  **********************
  
  --------------------------------------------------------------------------------------------------
                         Average     Avg  Evap Exfil       Maximum     Max    Time of Max    Maximum
                          Volume    Pcnt  Pcnt  Pcnt        Volume    Pcnt     Occurrence    Outflow
  Storage Unit           1000 m3    Full  Loss  Loss       1000 m3    Full    days hr:min        CMS
  --------------------------------------------------------------------------------------------------
  T5                       0.061      12     0     0         0.168      34       0  23:40      0.023
  T4                       0.060      12     0     0         0.175      35       0  23:40      0.017
  T6                       0.091      15     0     0         0.161      27       0  14:18      0.039
  T3                       0.474      18     0     0         1.629      63       0  23:40      0.047
  T2                       0.148      15     0     0         0.519      52       0  23:40      0.011
  T1                       0.060       9     0     0         0.279      40       0  23:19      0.170
  
  
  ***********************
  Outfall Loading Summary
  ***********************
  
  -----------------------------------------------------------
                         Flow       Avg       Max       Total
                         Freq      Flow      Flow      Volume
  Outfall Node           Pcnt       CMS       CMS    10^6 ltr
  -----------------------------------------------------------
  Out_to_WWTP           99.43     0.066     0.170       5.598
  -----------------------------------------------------------
  System                99.43     0.066     0.170       5.598
  
  
  ********************
  Link Flow Summary
  ********************
  
  -----------------------------------------------------------------------------
                                 Maximum  Time of Max   Maximum    Max/    Max/
                                  |Flow|   Occurrence   |Veloc|    Full    Full
  Link                 Type          CMS  days hr:min     m/sec    Flow   Depth
  -----------------------------------------------------------------------------
  C1                   CONDUIT     0.023     0  23:40      0.85    0.01    0.08
  C6                   CONDUIT     0.032     0  22:40      1.11    0.51    0.43
  C2                   CONDUIT     0.017     0  23:40      0.80    0.02    0.13
  C9                   CONDUIT     0.018     0  22:42      0.73    0.06    0.18
  C16                  CONDUIT     0.333     0  22:57      1.55    0.03    0.12
  C3                   CONDUIT     0.047     0  23:40      1.27    0.02    0.09
  C19                  CONDUIT     0.011     0  23:40      0.33    0.00    0.14
  C11                  CONDUIT     0.086     0  23:40      1.22    0.00    0.08
  C20                  CONDUIT     0.427     0  22:32      2.93    0.01    0.10
  C22                  CONDUIT     0.110     0  22:34      1.35    0.05    0.22
  C12                  CONDUIT     0.039     0  14:37      0.95    0.00    0.08
  C17                  CONDUIT     0.614     0  22:57      2.92    0.03    0.12
  C10                  CONDUIT     0.082     0  22:41      0.94    0.01    0.47
  C13                  CONDUIT     0.596     0  23:00      0.83    0.03    0.56
  C18                  CONDUIT     0.372     0  22:32      1.01    0.01    0.53
  C23                  CONDUIT     0.494     0  22:36      0.84    0.05    0.57
  C4                   CONDUIT     0.190     0  22:32      1.13    0.05    0.57
  C7                   CONDUIT     0.077     0  22:39      0.83    0.02    0.55
  C14                  CONDUIT     0.170     0  23:20      1.80    0.01    0.07
  C5                   CONDUIT     0.040     0  22:32      1.56    0.68    0.59
  C8                   CONDUIT     0.021     0  22:37      1.12    0.26    0.31
  C15                  CONDUIT     0.406     0  22:51      3.53    1.29    0.77
  C21                  CONDUIT     0.122     0  22:32      1.75    0.70    0.47
  V4                   ORIFICE     0.017     0  23:40                      0.35
  V5                   ORIFICE     0.023     0  23:40                      1.00
  V1                   ORIFICE     0.170     0  23:19                      1.00
  V6                   ORIFICE     0.039     0  14:20                      0.43
  V3                   ORIFICE     0.047     0  23:40                      0.32
  V2                   ORIFICE     0.011     0  23:40                      0.11
  
  
  ***************************
  Flow Classification Summary
  ***************************
  
  -------------------------------------------------------------------------------------
                      Adjusted    ---------- Fraction of Time in Flow Class ---------- 
                       /Actual         Up    Down  Sub   Sup   Up    Down  Norm  Inlet 
  Conduit               Length    Dry  Dry   Dry   Crit  Crit  Crit  Crit  Ltd   Ctrl  
  -------------------------------------------------------------------------------------
  C1                      1.00   0.00  0.00  0.00  0.04  0.96  0.00  0.00  0.96  0.00
  C6                      1.00   0.00  0.00  0.00  0.01  0.99  0.00  0.00  0.00  0.00
  C2                      1.00   0.00  0.00  0.00  0.14  0.86  0.00  0.00  0.98  0.00
  C9                      1.00   0.00  0.00  0.00  1.00  0.00  0.00  0.00  1.00  0.00
  C16                     1.00   0.00  0.34  0.00  0.61  0.05  0.00  0.00  0.59  0.00
  C3                      1.00   0.00  0.00  0.00  0.04  0.96  0.00  0.00  0.92  0.00
  C19                     1.00   0.00  0.00  0.00  1.00  0.00  0.00  0.00  1.00  0.00
  C11                     1.00   0.00  0.00  0.00  0.06  0.94  0.00  0.00  1.00  0.00
  C20                     1.00   0.00  0.00  0.00  0.86  0.14  0.00  0.00  0.99  0.00
  C22                     1.00   0.00  0.00  0.00  0.99  0.01  0.00  0.00  1.00  0.00
  C12                     1.00   0.00  0.00  0.00  0.22  0.77  0.00  0.00  0.82  0.00
  C17                     1.00   0.00  0.00  0.00  0.54  0.46  0.00  0.00  0.98  0.00
  C10                     1.00   0.00  0.00  0.00  0.83  0.17  0.00  0.00  0.98  0.00
  C13                     1.00   0.00  0.00  0.00  0.88  0.12  0.00  0.00  0.93  0.00
  C18                     1.00   0.00  0.00  0.00  0.96  0.04  0.00  0.00  0.98  0.00
  C23                     1.00   0.00  0.00  0.00  0.76  0.24  0.00  0.00  0.96  0.00
  C4                      1.00   0.00  0.00  0.00  0.82  0.18  0.00  0.00  0.98  0.00
  C7                      1.00   0.00  0.00  0.00  0.84  0.16  0.00  0.00  0.97  0.00
  C14                     1.00   0.00  0.00  0.00  0.00  1.00  0.00  0.00  0.64  0.00
  C5                      1.00   0.00  0.00  0.00  0.95  0.05  0.00  0.00  0.98  0.00
  C8                      1.00   0.00  0.00  0.00  0.16  0.84  0.00  0.00  0.00  0.00
  C15                     1.00   0.34  0.06  0.00  0.03  0.56  0.00  0.00  0.18  0.00
  C21                     1.00   0.00  0.00  0.00  0.00  1.00  0.00  0.00  0.00  0.00
  
  
  *************************
  Conduit Surcharge Summary
  *************************
  
  ----------------------------------------------------------------------------
                                                           Hours        Hours 
                         --------- Hours Full --------   Above Full   Capacity
  Conduit                Both Ends  Upstream  Dnstream   Normal Flow   Limited
  ----------------------------------------------------------------------------
  C13                         0.01      0.01      0.94      0.01         0.01
  C18                         0.01      0.01      0.72      0.01         0.01
  C23                         0.01      0.01      0.91      0.01         0.01
  C4                          0.01      0.01      3.26      0.01         0.01
  C7                          0.01      0.01      3.30      0.01         0.01
  C15                         0.01      0.13      0.01      0.14         0.01
  

  Analysis begun on:  Tue Sep 21 02:11:10 2021
  Analysis ended on:  Tue Sep 21 02:11:10 2021
  Total elapsed time: < 1 sec