
  EPA STORM WATER MANAGEMENT MODEL - VERSION 5.1 (Build 5.3.0.dev0)
  --------------------------------------------------------------

  
  *********************************************************
  NOTE: The summary statistics displayed in this report are
  based on results found at every computational time step,  
  not just on results from each reporting time step.
  *********************************************************
  
  ****************
  Analysis Options
  ****************
  Flow Units ............... CMS
  Process Models:
    Rainfall/Runoff ........ YES
    RDII ................... NO
    Snowmelt ............... NO
    Groundwater ............ NO
    Flow Routing ........... YES
    Ponding Allowed ........ YES
    Water Quality .......... NO
  Infiltration Method ...... HORTON
  Flow Routing Method ...... DYNWAVE
  Surcharge Method ......... EXTRAN
  Starting Date ............ 08/28/2015 08:00:00
  Ending Date .............. 08/28/2015 15:50:00
  Antecedent Dry Days ...... 0.0
  Report Time Step ......... 00:01:00
  Wet Time Step ............ 00:01:00
  Dry Time Step ............ 00:01:00
  Routing Time Step ........ 5.00 sec
  Variable Time Step ....... YES
  Maximum Trials ........... 8
  Number of Threads ........ 1
  Head Tolerance ........... 0.001500 m
  
  
  **************************        Volume         Depth
  Runoff Quantity Continuity     hectare-m            mm
  **************************     ---------       -------
  Total Precipitation ......         1.526         8.469
  Evaporation Loss .........         0.000         0.000
  Infiltration Loss ........         0.000         0.000
  Surface Runoff ...........         1.503         8.340
  Final Storage ............         0.023         0.129
  Continuity Error (%) .....        -0.009
  
  
  **************************        Volume        Volume
  Flow Routing Continuity        hectare-m      10^6 ltr
  **************************     ---------     ---------
  Dry Weather Inflow .......         0.396         3.955
  Wet Weather Inflow .......         1.503        15.029
  Groundwater Inflow .......         0.000         0.000
  RDII Inflow ..............         0.000         0.000
  External Inflow ..........         0.000         0.000
  External Outflow .........         0.564         5.644
  Flooding Loss ............         0.295         2.948
  Evaporation Loss .........         0.000         0.000
  Exfiltration Loss ........         0.000         0.000
  Initial Stored Volume ....         0.000         0.000
  Final Stored Volume ......         0.792         7.916
  Continuity Error (%) .....        13.045
  
  
  *************************
  Highest Continuity Errors
  *************************
  Node T2 (39.89%)
  Node T4 (24.07%)
  Node T3 (23.21%)
  Node T5 (21.42%)
  Node T6 (17.15%)
  
  
  ***************************
  Time-Step Critical Elements
  ***************************
  None
  
  
  ********************************
  Highest Flow Instability Indexes
  ********************************
  Link C13 (2)
  
  
  *************************
  Routing Time Step Summary
  *************************
  Minimum Time Step           :     4.50 sec
  Average Time Step           :     5.00 sec
  Maximum Time Step           :     5.00 sec
  Percent in Steady State     :     0.00
  Average Iterations per Step :     2.11
  Percent Not Converging      :     0.44
  
  
  ***************************
  Subcatchment Runoff Summary
  ***************************
  
  ------------------------------------------------------------------------------------------------------------------------------
                            Total      Total      Total      Total     Imperv       Perv      Total       Total     Peak  Runoff
                           Precip      Runon       Evap      Infil     Runoff     Runoff     Runoff      Runoff   Runoff   Coeff
  Subcatchment                 mm         mm         mm         mm         mm         mm         mm    10^6 ltr      CMS
  ------------------------------------------------------------------------------------------------------------------------------
  SC01                       8.47       0.00       0.00       0.00       8.38       0.00       8.38        2.77     0.53   0.990
  SC02                       8.47       0.00       0.00       0.00       8.38       0.00       8.38        1.91     0.36   0.989
  SC03                       8.47       0.00       0.00       0.00       8.40       0.00       8.40        1.51     0.32   0.992
  SC04                       8.47       0.00       0.00       0.00       8.28       0.00       8.28        0.57     0.08   0.977
  SC05                       8.47       0.00       0.00       0.00       8.38       0.00       8.38        1.31     0.25   0.989
  SC06                       8.47       0.00       0.00       0.00       8.23       0.00       8.23        2.68     0.37   0.971
  SC07                       8.47       0.00       0.00       0.00       8.28       0.00       8.28        0.39     0.06   0.978
  SC08                       8.47       0.00       0.00       0.00       8.35       0.00       8.35        2.34     0.40   0.986
  SC09                       8.47       0.00       0.00       0.00       8.33       0.00       8.33        0.57     0.09   0.983
  SC010                      8.47       0.00       0.00       0.00       8.36       0.00       8.36        0.98     0.17   0.987
  
  
  ******************
  Node Depth Summary
  ******************
  
  ---------------------------------------------------------------------------------
                                 Average  Maximum  Maximum  Time of Max    Reported
                                   Depth    Depth      HGL   Occurrence   Max Depth
  Node                 Type       Meters   Meters   Meters  days hr:min      Meters
  ---------------------------------------------------------------------------------
  J1                   JUNCTION     0.08     0.17    34.17     0  01:33        0.17
  J3                   JUNCTION     0.10     0.13    18.13     0  04:42        0.13
  CSO7                 JUNCTION     0.13     1.06    35.06     0  01:46        1.00
  J5                   JUNCTION     0.07     0.13    32.13     0  01:48        0.13
  CSO9                 JUNCTION     0.16     0.87    40.87     0  01:38        0.87
  J8                   JUNCTION     0.12     0.23    36.23     0  03:01        0.23
  CSO8                 JUNCTION     0.19     1.24    33.24     0  01:35        1.24
  J10                  JUNCTION     0.10     0.26    29.26     0  01:35        0.26
  J13                  JUNCTION     0.07     0.16    29.16     0  01:33        0.16
  J15                  JUNCTION     0.17     0.29    15.29     0  01:38        0.29
  J16                  JUNCTION     0.07     0.18    30.18     0  01:32        0.18
  CSO10                JUNCTION     0.13     0.40    30.40     0  01:36        0.40
  J12                  JUNCTION     0.51     0.88    26.88     0  07:21        0.88
  J4                   JUNCTION     0.14     0.91    33.91     0  01:46        0.86
  J6                   JUNCTION     0.06     0.07    25.07     0  04:22        0.07
  J2                   JUNCTION     0.07     0.08    25.08     0  03:43        0.08
  J19                  JUNCTION     0.14     0.17     8.17     0  02:17        0.17
  J9                   JUNCTION     0.09     0.11    29.11     0  03:30        0.11
  J14                  JUNCTION     0.09     0.15    20.15     0  07:00        0.15
  J17                  JUNCTION     0.05     0.07    20.07     0  04:51        0.07
  J7                   JUNCTION     0.09     0.20    39.20     0  01:41        0.20
  J11                  JUNCTION     0.11     0.27    31.27     0  01:38        0.27
  J18                  JUNCTION     0.06     0.15    29.15     0  01:37        0.15
  Out_to_WWTP          OUTFALL      0.14     0.17     6.17     0  03:51        0.17
  T5                   STORAGE      3.57     5.00    32.00     0  02:56        5.00
  T4                   STORAGE      3.45     5.00    32.00     0  03:42        5.00
  T6                   STORAGE      3.78     5.00    36.00     0  02:21        5.00
  T3                   STORAGE      3.39     4.89    26.89     0  07:26        4.89
  T2                   STORAGE      3.58     5.00    26.00     0  04:07        5.00
  T1                   STORAGE      3.28     5.00    15.00     0  02:15        5.00
  
  
  *******************
  Node Inflow Summary
  *******************
  
  -------------------------------------------------------------------------------------------------
                                  Maximum  Maximum                  Lateral       Total        Flow
                                  Lateral    Total  Time of Max      Inflow      Inflow     Balance
                                   Inflow   Inflow   Occurrence      Volume      Volume       Error
  Node                 Type           CMS      CMS  days hr:min    10^6 ltr    10^6 ltr     Percent
  -------------------------------------------------------------------------------------------------
  J1                   JUNCTION     0.263    0.263     0  01:33        1.87        1.87       0.003
  J3                   JUNCTION     0.000    0.185     0  04:40           0        2.94       0.989
  CSO7                 JUNCTION     0.068    0.068     0  03:01       0.684       0.684       0.063
  J5                   JUNCTION     0.087    0.149     0  01:46       0.699        1.38       0.090
  CSO9                 JUNCTION     0.097    0.097     0  01:38       0.771       0.771       0.035
  J8                   JUNCTION     0.412    0.498     0  03:01        3.62        4.39       0.096
  CSO8                 JUNCTION     0.408    0.408     0  01:36        2.63        2.63       0.007
  J10                  JUNCTION     0.337    0.719     0  01:34         1.9        4.52       0.030
  J13                  JUNCTION     0.373    0.373     0  01:33        2.37        2.37      -0.241
  J15                  JUNCTION     0.000    0.769     0  01:34           0        7.71       0.837
  J16                  JUNCTION     0.552    0.552     0  01:32        3.32        3.32      -0.020
  CSO10                JUNCTION     0.174    0.174     0  01:35        1.12        1.12       0.035
  J12                  JUNCTION     0.000    0.750     0  01:36           0        6.52      11.568
  J4                   JUNCTION     0.000    0.068     0  03:01           0       0.683       0.490
  J6                   JUNCTION     0.000    0.028     0  03:42           0       0.563       0.703
  J2                   JUNCTION     0.000    0.039     0  02:56           0       0.871       0.581
  J19                  JUNCTION     0.000    0.271     0  02:15           0        5.65       0.181
  J9                   JUNCTION     0.000    0.075     0  02:30           0        1.57       0.430
  J14                  JUNCTION     0.000    0.122     0  07:00           0        1.52       0.285
  J17                  JUNCTION     0.000    0.033     0  04:50           0       0.362       1.155
  J7                   JUNCTION     0.000    0.097     0  01:38           0       0.771       0.411
  J11                  JUNCTION     0.000    0.408     0  01:36           0        2.63       0.247
  J18                  JUNCTION     0.000    0.174     0  01:36           0        1.12       0.072
  Out_to_WWTP          OUTFALL      0.000    0.271     0  02:17           0        5.64       0.000
  T5                   STORAGE      0.000    0.263     0  01:33           0        1.87      27.260
  T4                   STORAGE      0.000    0.147     0  01:48           0        1.38      31.705
  T6                   STORAGE      0.000    0.487     0  03:01           0        4.38      20.703
  T3                   STORAGE      0.000    0.743     0  01:39           0        5.85      30.225
  T2                   STORAGE      0.000    0.373     0  01:33           0        2.38      66.359
  T1                   STORAGE      0.000    0.757     0  01:38           0        7.64       6.721
  
  
  **********************
  Node Surcharge Summary
  **********************
  
  Surcharging occurs when water rises above the top of the highest conduit.
  ---------------------------------------------------------------------
                                               Max. Height   Min. Depth
                                   Hours       Above Crown    Below Rim
  Node                 Type      Surcharged         Meters       Meters
  ---------------------------------------------------------------------
  CSO7                 JUNCTION        0.61          0.808        0.136
  CSO9                 JUNCTION        0.72          0.555        1.127
  CSO8                 JUNCTION        0.63          0.787        0.760
  J4                   JUNCTION        0.43          0.610        1.090
  
  
  *********************
  Node Flooding Summary
  *********************
  
  Flooding refers to all water that overflows a node, whether it ponds or not.
  --------------------------------------------------------------------------
                                                             Total   Maximum
                                 Maximum   Time of Max       Flood    Ponded
                        Hours       Rate    Occurrence      Volume     Depth
  Node                 Flooded       CMS   days hr:min    10^6 ltr    Meters
  --------------------------------------------------------------------------
  T5                      0.95     0.186      0  03:01       0.197     0.000
  T4                      1.04     0.023      0  03:42       0.031     0.000
  T6                      2.69     0.412      0  03:01       1.530     0.000
  T2                      2.73     0.022      0  04:07       0.070     0.000
  T1                      1.46     0.424      0  03:03       1.119     0.000
  
  
  **********************
  Storage Volume Summary
  **********************
  
  --------------------------------------------------------------------------------------------------
                         Average     Avg  Evap Exfil       Maximum     Max    Time of Max    Maximum
                          Volume    Pcnt  Pcnt  Pcnt        Volume    Pcnt     Occurrence    Outflow
  Storage Unit           1000 m3    Full  Loss  Loss       1000 m3    Full    days hr:min        CMS
  --------------------------------------------------------------------------------------------------
  T5                       0.357      71     0     0         0.500     100       0  02:56      0.039
  T4                       0.345      69     0     0         0.500     100       0  03:42      0.028
  T6                       0.453      76     0     0         0.600     100       0  02:21      0.075
  T3                       1.761      68     0     0         2.541      98       0  07:26      0.267
  T2                       0.715      72     0     0         1.000     100       0  04:07      0.033
  T1                       0.460      66     0     0         0.700     100       0  02:15      0.271
  
  
  ***********************
  Outfall Loading Summary
  ***********************
  
  -----------------------------------------------------------
                         Flow       Avg       Max       Total
                         Freq      Flow      Flow      Volume
  Outfall Node           Pcnt       CMS       CMS    10^6 ltr
  -----------------------------------------------------------
  Out_to_WWTP           99.01     0.202     0.271       5.644
  -----------------------------------------------------------
  System                99.01     0.202     0.271       5.644
  
  
  ********************
  Link Flow Summary
  ********************
  
  -----------------------------------------------------------------------------
                                 Maximum  Time of Max   Maximum    Max/    Max/
                                  |Flow|   Occurrence   |Veloc|    Full    Full
  Link                 Type          CMS  days hr:min     m/sec    Flow   Depth
  -----------------------------------------------------------------------------
  C1                   CONDUIT     0.039     0  03:42      1.10    0.01    0.11
  C6                   CONDUIT     0.065     0  01:46      1.28    1.04    0.72
  C2                   CONDUIT     0.028     0  04:22      1.01    0.03    0.17
  C9                   CONDUIT     0.096     0  01:41      1.23    0.33    0.42
  C16                  CONDUIT     0.406     0  01:38      1.66    0.04    0.13
  C3                   CONDUIT     0.120     0  07:00      1.83    0.05    0.14
  C19                  CONDUIT     0.030     0  04:51      0.59    0.01    0.17
  C11                  CONDUIT     0.177     0  04:42      1.79    0.01    0.10
  C20                  CONDUIT     0.552     0  01:32      2.83    0.02    0.12
  C22                  CONDUIT     0.173     0  01:37      1.52    0.08    0.28
  C12                  CONDUIT     0.075     0  03:30      0.59    0.01    0.25
  C17                  CONDUIT     0.717     0  01:35      2.86    0.04    0.23
  C10                  CONDUIT     0.487     0  03:01      1.66    0.05    0.58
  C13                  CONDUIT     0.743     0  01:39      1.56    0.04    0.72
  C18                  CONDUIT     0.373     0  01:33      1.72    0.01    0.54
  C23                  CONDUIT     0.757     0  01:38      1.31    0.08    0.60
  C4                   CONDUIT     0.263     0  01:33      1.98    0.06    0.59
  C7                   CONDUIT     0.147     0  01:48      1.43    0.04    0.57
  C14                  CONDUIT     0.271     0  02:17      2.08    0.02    0.09
  C5                   CONDUIT     0.068     0  03:01      1.33    1.16    1.00
  C8                   CONDUIT     0.097     0  01:38      1.41    1.22    0.81
  C15                  CONDUIT     0.408     0  01:36      2.96    1.30    0.80
  C21                  CONDUIT     0.174     0  01:36      1.76    0.99    0.63
  V4                   ORIFICE     0.028     0  03:42                      0.35
  V5                   ORIFICE     0.039     0  02:56                      1.00
  V1                   ORIFICE     0.271     0  02:15                      1.00
  V6                   ORIFICE     0.075     0  02:30                      0.43
  V3                   ORIFICE     0.122     0  07:00                      0.65
  V2                   ORIFICE     0.033     0  04:50                      0.24
  
  
  ***************************
  Flow Classification Summary
  ***************************
  
  -------------------------------------------------------------------------------------
                      Adjusted    ---------- Fraction of Time in Flow Class ---------- 
                       /Actual         Up    Down  Sub   Sup   Up    Down  Norm  Inlet 
  Conduit               Length    Dry  Dry   Dry   Crit  Crit  Crit  Crit  Ltd   Ctrl  
  -------------------------------------------------------------------------------------
  C1                      1.00   0.00  0.00  0.00  0.00  1.00  0.00  0.00  0.94  0.00
  C6                      1.00   0.00  0.00  0.00  0.12  0.88  0.00  0.00  0.00  0.00
  C2                      1.00   0.00  0.00  0.00  0.12  0.87  0.00  0.00  0.95  0.00
  C9                      1.00   0.00  0.00  0.00  1.00  0.00  0.00  0.00  1.00  0.00
  C16                     1.00   0.00  0.00  0.00  0.56  0.44  0.00  0.00  0.44  0.00
  C3                      1.00   0.00  0.00  0.00  0.05  0.95  0.00  0.00  0.79  0.00
  C19                     1.00   0.00  0.00  0.00  1.00  0.00  0.00  0.00  1.00  0.00
  C11                     1.00   0.00  0.00  0.00  0.35  0.64  0.00  0.00  1.00  0.00
  C20                     1.00   0.00  0.00  0.00  0.55  0.45  0.00  0.00  0.98  0.00
  C22                     1.00   0.00  0.00  0.00  0.72  0.28  0.00  0.00  1.00  0.00
  C12                     1.00   0.00  0.00  0.00  1.00  0.00  0.00  0.00  1.00  0.00
  C17                     1.00   0.00  0.00  0.00  0.59  0.41  0.00  0.00  0.92  0.00
  C10                     1.00   0.00  0.00  0.00  0.96  0.04  0.00  0.00  0.97  0.00
  C13                     1.00   0.00  0.00  0.00  0.84  0.16  0.00  0.00  0.30  0.00
  C18                     1.00   0.00  0.00  0.00  0.94  0.06  0.00  0.00  0.97  0.00
  C23                     1.00   0.00  0.00  0.00  0.85  0.15  0.00  0.00  0.94  0.00
  C4                      1.00   0.00  0.00  0.00  0.96  0.04  0.00  0.00  0.98  0.00
  C7                      1.00   0.00  0.00  0.00  0.94  0.06  0.00  0.00  0.97  0.00
  C14                     1.00   0.00  0.00  0.00  0.00  0.99  0.00  0.00  0.34  0.00
  C5                      1.00   0.00  0.00  0.00  0.92  0.08  0.00  0.00  0.89  0.00
  C8                      1.00   0.00  0.00  0.00  0.18  0.82  0.00  0.00  0.00  0.00
  C15                     1.00   0.00  0.00  0.00  0.00  1.00  0.00  0.00  0.00  0.00
  C21                     1.00   0.00  0.00  0.00  0.00  1.00  0.00  0.00  0.00  0.00
  
  
  *************************
  Conduit Surcharge Summary
  *************************
  
  ----------------------------------------------------------------------------
                                                           Hours        Hours 
                         --------- Hours Full --------   Above Full   Capacity
  Conduit                Both Ends  Upstream  Dnstream   Normal Flow   Limited
  ----------------------------------------------------------------------------
  C6                          0.01      0.43      0.01      0.09         0.01
  C10                         0.01      0.01      6.19      0.01         0.01
  C13                         0.01      0.01      5.80      0.01         0.01
  C18                         0.01      0.01      5.89      0.01         0.01
  C23                         0.01      0.01      6.25      0.01         0.01
  C4                          0.01      0.01      6.33      0.01         0.01
  C7                          0.01      0.01      6.13      0.01         0.01
  C5                          0.61      0.61      0.86      0.74         0.51
  C8                          0.01      0.72      0.01      0.71         0.01
  C15                         0.01      0.63      0.01      0.74         0.01
  

  Analysis begun on:  Fri Sep  3 19:13:14 2021
  Analysis ended on:  Fri Sep  3 19:13:14 2021
  Total elapsed time: < 1 sec