
  EPA STORM WATER MANAGEMENT MODEL - VERSION 5.1 (Build 5.3.0.dev0)
  --------------------------------------------------------------

  WARNING 09: time series interval greater than recording interval for Rain Gage RG1
  WARNING 09: time series interval greater than recording interval for Rain Gage RG2
  WARNING 09: time series interval greater than recording interval for Rain Gage RG3
  WARNING 09: time series interval greater than recording interval for Rain Gage RG4
  
  *********************************************************
  NOTE: The summary statistics displayed in this report are
  based on results found at every computational time step,  
  not just on results from each reporting time step.
  *********************************************************
  
  ****************
  Analysis Options
  ****************
  Flow Units ............... CMS
  Process Models:
    Rainfall/Runoff ........ YES
    RDII ................... NO
    Snowmelt ............... NO
    Groundwater ............ NO
    Flow Routing ........... YES
    Ponding Allowed ........ YES
    Water Quality .......... NO
  Infiltration Method ...... HORTON
  Flow Routing Method ...... DYNWAVE
  Surcharge Method ......... EXTRAN
  Starting Date ............ 08/28/2015 00:00:00
  Ending Date .............. 08/28/2015 23:40:00
  Antecedent Dry Days ...... 0.0
  Report Time Step ......... 00:01:00
  Wet Time Step ............ 00:01:00
  Dry Time Step ............ 00:01:00
  Routing Time Step ........ 5.00 sec
  Variable Time Step ....... YES
  Maximum Trials ........... 8
  Number of Threads ........ 1
  Head Tolerance ........... 0.001500 m
  
  
  **************************        Volume         Depth
  Runoff Quantity Continuity     hectare-m            mm
  **************************     ---------       -------
  Total Precipitation ......         1.689         9.373
  Evaporation Loss .........         0.000         0.000
  Infiltration Loss ........         0.000         0.000
  Surface Runoff ...........         1.648         9.147
  Final Storage ............         0.042         0.232
  Continuity Error (%) .....        -0.071
  
  
  **************************        Volume        Volume
  Flow Routing Continuity        hectare-m      10^6 ltr
  **************************     ---------     ---------
  Dry Weather Inflow .......         0.758         7.576
  Wet Weather Inflow .......         1.648        16.482
  Groundwater Inflow .......         0.000         0.000
  RDII Inflow ..............         0.000         0.000
  External Inflow ..........         0.000         0.000
  External Outflow .........         1.376        13.763
  Flooding Loss ............         0.168         1.685
  Evaporation Loss .........         0.000         0.000
  Exfiltration Loss ........         0.000         0.000
  Initial Stored Volume ....         0.000         0.000
  Final Stored Volume ......         0.710         7.102
  Continuity Error (%) .....         6.270
  
  
  *************************
  Highest Continuity Errors
  *************************
  Node T2 (31.66%)
  Node T3 (13.95%)
  Node T4 (8.54%)
  Node J12 (7.47%)
  Node T5 (7.39%)
  
  
  ***************************
  Time-Step Critical Elements
  ***************************
  None
  
  
  ********************************
  Highest Flow Instability Indexes
  ********************************
  All links are stable.
  
  
  *************************
  Routing Time Step Summary
  *************************
  Minimum Time Step           :     4.50 sec
  Average Time Step           :     5.00 sec
  Maximum Time Step           :     5.00 sec
  Percent in Steady State     :     0.00
  Average Iterations per Step :     2.00
  Percent Not Converging      :     0.01
  
  
  ***************************
  Subcatchment Runoff Summary
  ***************************
  
  ------------------------------------------------------------------------------------------------------------------------------
                            Total      Total      Total      Total     Imperv       Perv      Total       Total     Peak  Runoff
                           Precip      Runon       Evap      Infil     Runoff     Runoff     Runoff      Runoff   Runoff   Coeff
  Subcatchment                 mm         mm         mm         mm         mm         mm         mm    10^6 ltr      CMS
  ------------------------------------------------------------------------------------------------------------------------------
  SC01                       9.08       0.00       0.00       0.00       8.89       0.00       8.89        2.93     0.31   0.979
  SC02                       8.40       0.00       0.00       0.00       8.23       0.00       8.23        1.87     0.16   0.980
  SC03                      10.17       0.00       0.00       0.00      10.06       0.00      10.06        1.81     0.41   0.989
  SC04                       8.40       0.00       0.00       0.00       8.11       0.00       8.11        0.56     0.03   0.966
  SC05                       9.08       0.00       0.00       0.00       8.88       0.00       8.88        1.38     0.14   0.978
  SC06                       9.74       0.00       0.00       0.00       9.37       0.00       9.37        3.05     0.19   0.962
  SC07                       8.40       0.00       0.00       0.00       8.11       0.00       8.11        0.39     0.02   0.966
  SC08                      10.17       0.00       0.00       0.00       9.98       0.00       9.98        2.79     0.35   0.981
  SC09                       9.74       0.00       0.00       0.00       9.48       0.00       9.48        0.65     0.06   0.973
  SC010                      9.08       0.00       0.00       0.00       8.85       0.00       8.85        1.04     0.09   0.975
  
  
  ******************
  Node Depth Summary
  ******************
  
  ---------------------------------------------------------------------------------
                                 Average  Maximum  Maximum  Time of Max    Reported
                                   Depth    Depth      HGL   Occurrence   Max Depth
  Node                 Type       Meters   Meters   Meters  days hr:min      Meters
  ---------------------------------------------------------------------------------
  J1                   JUNCTION     0.06     0.12    34.12     0  00:37        0.12
  J3                   JUNCTION     0.10     0.11    18.11     0  13:10        0.11
  CSO7                 JUNCTION     0.07     0.11    34.11     0  07:31        0.11
  J5                   JUNCTION     0.05     0.07    32.07     0  00:47        0.07
  CSO9                 JUNCTION     0.08     0.21    40.21     0  00:37        0.21
  J8                   JUNCTION     0.09     0.16    36.16     0  00:42        0.16
  CSO8                 JUNCTION     0.10     1.11    33.11     0  00:21        0.57
  J10                  JUNCTION     0.08     0.23    29.23     0  00:27        0.23
  J13                  JUNCTION     0.05     0.11    29.11     0  00:37        0.11
  J15                  JUNCTION     0.14     0.20    15.20     0  00:43        0.20
  J16                  JUNCTION     0.05     0.13    30.13     0  00:36        0.13
  CSO10                JUNCTION     0.09     0.24    30.24     0  00:36        0.24
  J12                  JUNCTION     0.62     1.01    27.01     0  18:27        1.01
  J4                   JUNCTION     0.09     0.13    33.13     0  07:38        0.13
  J6                   JUNCTION     0.06     0.06    25.06     0  13:05        0.06
  J2                   JUNCTION     0.06     0.07    25.07     0  11:33        0.07
  J19                  JUNCTION     0.13     0.15     8.15     0  10:24        0.15
  J9                   JUNCTION     0.10     0.11    29.11     0  10:50        0.11
  J14                  JUNCTION     0.10     0.12    20.12     0  02:40        0.12
  J17                  JUNCTION     0.04     0.05    20.05     0  21:42        0.05
  J7                   JUNCTION     0.07     0.14    39.14     0  00:43        0.14
  J11                  JUNCTION     0.08     0.24    31.24     0  00:28        0.24
  J18                  JUNCTION     0.04     0.10    29.10     0  00:38        0.10
  Out_to_WWTP          OUTFALL      0.13     0.15     6.15     0  10:24        0.15
  T5                   STORAGE      2.10     2.92    29.92     0  11:31        2.92
  T4                   STORAGE      1.92     2.70    29.70     0  13:03        2.70
  T6                   STORAGE      3.45     5.00    36.00     0  10:09        5.00
  T3                   STORAGE      4.02     5.00    27.00     0  13:50        5.00
  T2                   STORAGE      3.10     4.76    25.76     0  21:39        4.76
  T1                   STORAGE      1.88     2.67    12.67     0  10:24        2.67
  
  
  *******************
  Node Inflow Summary
  *******************
  
  -------------------------------------------------------------------------------------------------
                                  Maximum  Maximum                  Lateral       Total        Flow
                                  Lateral    Total  Time of Max      Inflow      Inflow     Balance
                                   Inflow   Inflow   Occurrence      Volume      Volume       Error
  Node                 Type           CMS      CMS  days hr:min    10^6 ltr    10^6 ltr     Percent
  -------------------------------------------------------------------------------------------------
  J1                   JUNCTION     0.139    0.139     0  00:36        2.48        2.48      -0.073
  J3                   JUNCTION     0.000    0.115     0  02:40           0        8.03       0.314
  CSO7                 JUNCTION     0.022    0.022     0  07:26        0.95        0.95       0.018
  J5                   JUNCTION     0.028    0.045     0  00:46       0.808        1.76      -0.020
  CSO9                 JUNCTION     0.061    0.061     0  00:36        1.04        1.04       0.021
  J8                   JUNCTION     0.195    0.239     0  00:41        4.88        5.91      -0.023
  CSO8                 JUNCTION     0.352    0.352     0  00:21        3.24        3.24      -0.001
  J10                  JUNCTION     0.417    0.596     0  00:26        2.56         5.8      -0.049
  J13                  JUNCTION     0.158    0.158     0  00:36        2.78        2.78      -0.180
  J15                  JUNCTION     0.000    0.392     0  00:37           0        14.3       0.372
  J16                  JUNCTION     0.309    0.309     0  00:31        4.01        4.01      -0.026
  CSO10                JUNCTION     0.087    0.087     0  00:36        1.31        1.31       0.025
  J12                  JUNCTION     0.000    0.577     0  00:27           0        10.8       8.069
  J4                   JUNCTION     0.000    0.022     0  07:31           0        0.95       0.171
  J6                   JUNCTION     0.000    0.021     0  13:03           0        1.41       0.209
  J2                   JUNCTION     0.000    0.030     0  11:31           0        2.12       0.177
  J19                  JUNCTION     0.000    0.197     0  10:24           0        13.8       0.058
  J9                   JUNCTION     0.000    0.075     0  10:20           0        4.99       0.295
  J14                  JUNCTION     0.000    0.082     0  02:40           0        4.51       0.094
  J17                  JUNCTION     0.000    0.015     0  21:39           0       0.979       0.385
  J7                   JUNCTION     0.000    0.057     0  00:37           0        1.04       0.179
  J11                  JUNCTION     0.000    0.342     0  00:21           0        3.24       0.168
  J18                  JUNCTION     0.000    0.084     0  00:37           0        1.31       0.045
  Out_to_WWTP          OUTFALL      0.000    0.197     0  10:24           0        13.8       0.000
  T5                   STORAGE      0.000    0.130     0  00:37           0        2.48       7.975
  T4                   STORAGE      0.000    0.044     0  00:47           0        1.76       9.335
  T6                   STORAGE      0.000    0.232     0  00:42           0        5.92       7.798
  T3                   STORAGE      0.000    0.574     0  00:27           0        9.97      16.214
  T2                   STORAGE      0.000    0.146     0  00:37           0        2.79      46.327
  T1                   STORAGE      0.000    0.350     0  00:43           0        14.2       1.961
  
  
  **********************
  Node Surcharge Summary
  **********************
  
  Surcharging occurs when water rises above the top of the highest conduit.
  ---------------------------------------------------------------------
                                               Max. Height   Min. Depth
                                   Hours       Above Crown    Below Rim
  Node                 Type      Surcharged         Meters       Meters
  ---------------------------------------------------------------------
  CSO8                 JUNCTION        0.03          0.654        0.893
  
  
  *********************
  Node Flooding Summary
  *********************
  
  Flooding refers to all water that overflows a node, whether it ponds or not.
  --------------------------------------------------------------------------
                                                             Total   Maximum
                                 Maximum   Time of Max       Flood    Ponded
                        Hours       Rate    Occurrence      Volume     Depth
  Node                 Flooded       CMS   days hr:min    10^6 ltr    Meters
  --------------------------------------------------------------------------
  T6                      1.51     0.095      0  10:10       0.207     0.000
  T3                      8.72     0.234      0  18:31       1.478     0.000
  
  
  **********************
  Storage Volume Summary
  **********************
  
  --------------------------------------------------------------------------------------------------
                         Average     Avg  Evap Exfil       Maximum     Max    Time of Max    Maximum
                          Volume    Pcnt  Pcnt  Pcnt        Volume    Pcnt     Occurrence    Outflow
  Storage Unit           1000 m3    Full  Loss  Loss       1000 m3    Full    days hr:min        CMS
  --------------------------------------------------------------------------------------------------
  T5                       0.210      42     0     0         0.292      58       0  11:31      0.030
  T4                       0.192      38     0     0         0.270      54       0  13:03      0.021
  T6                       0.414      69     0     0         0.600     100       0  10:09      0.075
  T3                       2.092      80     0     0         2.600     100       0  13:50      0.082
  T2                       0.620      62     0     0         0.952      95       0  21:39      0.015
  T1                       0.264      38     0     0         0.374      53       0  10:24      0.197
  
  
  ***********************
  Outfall Loading Summary
  ***********************
  
  -----------------------------------------------------------
                         Flow       Avg       Max       Total
                         Freq      Flow      Flow      Volume
  Outfall Node           Pcnt       CMS       CMS    10^6 ltr
  -----------------------------------------------------------
  Out_to_WWTP           99.51     0.162     0.197      13.763
  -----------------------------------------------------------
  System                99.51     0.162     0.197      13.763
  
  
  ********************
  Link Flow Summary
  ********************
  
  -----------------------------------------------------------------------------
                                 Maximum  Time of Max   Maximum    Max/    Max/
                                  |Flow|   Occurrence   |Veloc|    Full    Full
  Link                 Type          CMS  days hr:min     m/sec    Flow   Depth
  -----------------------------------------------------------------------------
  C1                   CONDUIT     0.030     0  11:33      0.90    0.01    0.09
  C6                   CONDUIT     0.021     0  07:38      1.01    0.34    0.34
  C2                   CONDUIT     0.021     0  13:05      0.85    0.02    0.14
  C9                   CONDUIT     0.051     0  00:43      1.03    0.17    0.30
  C16                  CONDUIT     0.303     0  00:28      1.50    0.03    0.12
  C3                   CONDUIT     0.080     0  02:40      1.62    0.03    0.11
  C19                  CONDUIT     0.015     0  21:42      0.44    0.01    0.12
  C11                  CONDUIT     0.110     0  13:10      1.46    0.01    0.07
  C20                  CONDUIT     0.289     0  00:37      3.00    0.01    0.08
  C22                  CONDUIT     0.078     0  00:38      1.24    0.04    0.19
  C12                  CONDUIT     0.075     0  10:50      1.02    0.01    0.28
  C17                  CONDUIT     0.568     0  00:27      2.76    0.03    0.28
  C10                  CONDUIT     0.232     0  00:42      1.45    0.02    0.55
  C13                  CONDUIT     0.574     0  00:27      2.79    0.03    0.75
  C18                  CONDUIT     0.146     0  00:37      1.66    0.01    0.52
  C23                  CONDUIT     0.350     0  00:43      1.74    0.04    0.56
  C4                   CONDUIT     0.130     0  00:37      1.48    0.03    0.55
  C7                   CONDUIT     0.044     0  00:47      1.30    0.01    0.54
  C14                  CONDUIT     0.197     0  10:24      1.89    0.01    0.07
  C5                   CONDUIT     0.022     0  07:31      1.01    0.37    0.46
  C8                   CONDUIT     0.057     0  00:37      1.34    0.72    0.54
  C15                  CONDUIT     0.342     0  00:21      2.83    1.09    0.74
  C21                  CONDUIT     0.084     0  00:37      1.60    0.48    0.38
  V4                   ORIFICE     0.021     0  13:03                      0.35
  V5                   ORIFICE     0.030     0  11:31                      1.00
  V1                   ORIFICE     0.197     0  10:24                      1.00
  V6                   ORIFICE     0.075     0  10:20                      0.43
  V3                   ORIFICE     0.082     0  02:40                      0.65
  V2                   ORIFICE     0.015     0  21:39                      0.11
  
  
  ***************************
  Flow Classification Summary
  ***************************
  
  -------------------------------------------------------------------------------------
                      Adjusted    ---------- Fraction of Time in Flow Class ---------- 
                       /Actual         Up    Down  Sub   Sup   Up    Down  Norm  Inlet 
  Conduit               Length    Dry  Dry   Dry   Crit  Crit  Crit  Crit  Ltd   Ctrl  
  -------------------------------------------------------------------------------------
  C1                      1.00   0.00  0.00  0.00  0.01  0.99  0.00  0.00  0.98  0.00
  C6                      1.00   0.00  0.00  0.00  0.01  0.99  0.00  0.00  0.00  0.00
  C2                      1.00   0.00  0.00  0.00  0.11  0.89  0.00  0.00  0.98  0.00
  C9                      1.00   0.00  0.00  0.00  1.00  0.00  0.00  0.00  1.00  0.00
  C16                     1.00   0.00  0.00  0.00  0.45  0.55  0.00  0.00  0.25  0.00
  C3                      1.00   0.00  0.00  0.00  0.01  0.99  0.00  0.00  0.37  0.00
  C19                     1.00   0.00  0.00  0.00  1.00  0.00  0.00  0.00  1.00  0.00
  C11                     1.00   0.00  0.00  0.00  0.09  0.91  0.00  0.00  1.00  0.00
  C20                     1.00   0.00  0.00  0.00  0.65  0.35  0.00  0.00  0.99  0.00
  C22                     1.00   0.00  0.00  0.00  0.94  0.06  0.00  0.00  1.00  0.00
  C12                     1.00   0.00  0.00  0.00  0.86  0.14  0.00  0.00  0.99  0.00
  C17                     1.00   0.00  0.00  0.00  0.71  0.29  0.00  0.00  0.98  0.00
  C10                     1.00   0.00  0.00  0.00  0.98  0.02  0.00  0.00  0.99  0.00
  C13                     1.00   0.00  0.00  0.00  0.98  0.02  0.00  0.00  0.33  0.00
  C18                     1.00   0.00  0.00  0.00  0.98  0.02  0.00  0.00  0.99  0.00
  C23                     1.00   0.00  0.00  0.00  0.97  0.03  0.00  0.00  0.98  0.00
  C4                      1.00   0.00  0.00  0.00  0.98  0.02  0.00  0.00  0.99  0.00
  C7                      1.00   0.00  0.00  0.00  0.98  0.02  0.00  0.00  0.98  0.00
  C14                     1.00   0.00  0.00  0.00  0.00  1.00  0.00  0.00  0.86  0.00
  C5                      1.00   0.00  0.00  0.00  0.89  0.11  0.00  0.00  0.98  0.00
  C8                      1.00   0.00  0.00  0.00  0.04  0.96  0.00  0.00  0.00  0.00
  C15                     1.00   0.00  0.00  0.00  0.01  0.99  0.00  0.00  0.01  0.00
  C21                     1.00   0.00  0.00  0.00  0.00  1.00  0.00  0.00  0.00  0.00
  
  
  *************************
  Conduit Surcharge Summary
  *************************
  
  ----------------------------------------------------------------------------
                                                           Hours        Hours 
                         --------- Hours Full --------   Above Full   Capacity
  Conduit                Both Ends  Upstream  Dnstream   Normal Flow   Limited
  ----------------------------------------------------------------------------
  C10                         0.01      0.01     22.46      0.01         0.01
  C13                         0.01      0.01     21.48      0.01         0.01
  C18                         0.01      0.01     16.76      0.01         0.01
  C23                         0.01      0.01     17.25      0.01         0.01
  C4                          0.01      0.01     22.46      0.01         0.01
  C7                          0.01      0.01     21.58      0.01         0.01
  C15                         0.01      0.03      0.01      0.06         0.01
  

  Analysis begun on:  Mon Sep 20 22:54:35 2021
  Analysis ended on:  Mon Sep 20 22:54:36 2021
  Total elapsed time: 00:00:01