
  EPA STORM WATER MANAGEMENT MODEL - VERSION 5.1 (Build 5.3.0.dev0)
  --------------------------------------------------------------

  
  *********************************************************
  NOTE: The summary statistics displayed in this report are
  based on results found at every computational time step,  
  not just on results from each reporting time step.
  *********************************************************
  
  ****************
  Analysis Options
  ****************
  Flow Units ............... CMS
  Process Models:
    Rainfall/Runoff ........ YES
    RDII ................... NO
    Snowmelt ............... NO
    Groundwater ............ NO
    Flow Routing ........... YES
    Ponding Allowed ........ YES
    Water Quality .......... NO
  Infiltration Method ...... HORTON
  Flow Routing Method ...... DYNWAVE
  Surcharge Method ......... EXTRAN
  Starting Date ............ 08/28/2015 08:00:00
  Ending Date .............. 08/28/2015 15:50:00
  Antecedent Dry Days ...... 0.0
  Report Time Step ......... 00:01:00
  Wet Time Step ............ 00:01:00
  Dry Time Step ............ 00:01:00
  Routing Time Step ........ 5.00 sec
  Variable Time Step ....... YES
  Maximum Trials ........... 8
  Number of Threads ........ 1
  Head Tolerance ........... 0.001500 m
  
  
  **************************        Volume         Depth
  Runoff Quantity Continuity     hectare-m            mm
  **************************     ---------       -------
  Total Precipitation ......         2.652        14.716
  Evaporation Loss .........         0.000         0.000
  Infiltration Loss ........         0.000         0.000
  Surface Runoff ...........         2.628        14.584
  Final Storage ............         0.024         0.134
  Continuity Error (%) .....        -0.011
  
  
  **************************        Volume        Volume
  Flow Routing Continuity        hectare-m      10^6 ltr
  **************************     ---------     ---------
  Dry Weather Inflow .......         0.396         3.956
  Wet Weather Inflow .......         2.628        26.281
  Groundwater Inflow .......         0.000         0.000
  RDII Inflow ..............         0.000         0.000
  External Inflow ..........         0.000         0.000
  External Outflow .........         0.583         5.827
  Flooding Loss ............         1.383        13.833
  Evaporation Loss .........         0.000         0.000
  Exfiltration Loss ........         0.000         0.000
  Initial Stored Volume ....         0.000         0.000
  Final Stored Volume ......         0.811         8.111
  Continuity Error (%) .....         8.152
  
  
  *************************
  Highest Continuity Errors
  *************************
  Node T2 (24.98%)
  Node T3 (17.90%)
  Node T4 (16.62%)
  Node T5 (14.11%)
  Node T6 (10.86%)
  
  
  ***************************
  Time-Step Critical Elements
  ***************************
  None
  
  
  ********************************
  Highest Flow Instability Indexes
  ********************************
  All links are stable.
  
  
  *************************
  Routing Time Step Summary
  *************************
  Minimum Time Step           :     1.83 sec
  Average Time Step           :     5.00 sec
  Maximum Time Step           :     5.00 sec
  Percent in Steady State     :     0.00
  Average Iterations per Step :     2.25
  Percent Not Converging      :     0.60
  
  
  ***************************
  Subcatchment Runoff Summary
  ***************************
  
  ------------------------------------------------------------------------------------------------------------------------------
                            Total      Total      Total      Total     Imperv       Perv      Total       Total     Peak  Runoff
                           Precip      Runon       Evap      Infil     Runoff     Runoff     Runoff      Runoff   Runoff   Coeff
  Subcatchment                 mm         mm         mm         mm         mm         mm         mm    10^6 ltr      CMS
  ------------------------------------------------------------------------------------------------------------------------------
  SC01                      14.72       0.00       0.00       0.00      14.63       0.00      14.63        4.83     0.97   0.994
  SC02                      14.72       0.00       0.00       0.00      14.62       0.00      14.62        3.33     0.66   0.994
  SC03                      14.72       0.00       0.00       0.00      14.65       0.00      14.65        2.64     0.55   0.995
  SC04                      14.72       0.00       0.00       0.00      14.52       0.00      14.52        1.00     0.18   0.986
  SC05                      14.72       0.00       0.00       0.00      14.62       0.00      14.62        2.28     0.45   0.994
  SC06                      14.72       0.00       0.00       0.00      14.46       0.00      14.46        4.71     0.81   0.983
  SC07                      14.72       0.00       0.00       0.00      14.52       0.00      14.52        0.69     0.12   0.987
  SC08                      14.72       0.00       0.00       0.00      14.60       0.00      14.60        4.09     0.78   0.992
  SC09                      14.72       0.00       0.00       0.00      14.57       0.00      14.57        1.01     0.19   0.990
  SC010                     14.72       0.00       0.00       0.00      14.60       0.00      14.60        1.72     0.33   0.992
  
  
  ******************
  Node Depth Summary
  ******************
  
  ---------------------------------------------------------------------------------
                                 Average  Maximum  Maximum  Time of Max    Reported
                                   Depth    Depth      HGL   Occurrence   Max Depth
  Node                 Type       Meters   Meters   Meters  days hr:min      Meters
  ---------------------------------------------------------------------------------
  J1                   JUNCTION     0.09     0.23    34.23     0  02:51        0.23
  J3                   JUNCTION     0.10     0.13    18.13     0  05:12        0.13
  CSO7                 JUNCTION     0.36     1.20    35.20     0  01:22        1.20
  J5                   JUNCTION     0.08     0.17    32.17     0  02:54        0.17
  CSO9                 JUNCTION     0.45     2.00    42.00     0  01:20        2.00
  J8                   JUNCTION     0.14     0.32    36.32     0  02:55        0.32
  CSO8                 JUNCTION     0.47     2.00    34.00     0  01:17        2.00
  J10                  JUNCTION     0.12     0.31    29.31     0  02:50        0.31
  J13                  JUNCTION     0.08     0.22    29.22     0  02:51        0.22
  J15                  JUNCTION     0.18     0.39    15.39     0  02:53        0.39
  J16                  JUNCTION     0.09     0.24    30.24     0  02:50        0.24
  CSO10                JUNCTION     0.25     1.00    31.00     0  01:17        1.00
  J12                  JUNCTION     0.72     1.11    27.11     0  02:55        1.11
  J4                   JUNCTION     0.26     1.45    34.45     0  01:22        0.76
  J6                   JUNCTION     0.06     0.07    25.07     0  04:58        0.07
  J2                   JUNCTION     0.07     0.08    25.08     0  02:57        0.08
  J19                  JUNCTION     0.14     0.17     8.17     0  01:47        0.17
  J9                   JUNCTION     0.09     0.11    29.11     0  04:35        0.11
  J14                  JUNCTION     0.10     0.15    20.15     0  05:50        0.15
  J17                  JUNCTION     0.05     0.07    20.07     0  04:21        0.07
  J7                   JUNCTION     0.11     0.23    39.23     0  03:05        0.23
  J11                  JUNCTION     0.13     0.30    31.30     0  01:47        0.30
  J18                  JUNCTION     0.07     0.16    29.16     0  03:05        0.16
  Out_to_WWTP          OUTFALL      0.14     0.17     6.17     0  03:51        0.17
  T5                   STORAGE      3.81     5.00    32.00     0  02:10        5.00
  T4                   STORAGE      3.71     5.00    32.00     0  02:41        5.00
  T6                   STORAGE      3.96     5.00    36.00     0  01:53        5.00
  T3                   STORAGE      3.77     5.00    27.00     0  02:51        5.00
  T2                   STORAGE      3.87     5.00    26.00     0  02:33        5.00
  T1                   STORAGE      3.45     5.00    15.00     0  01:46        5.00
  
  
  *******************
  Node Inflow Summary
  *******************
  
  -------------------------------------------------------------------------------------------------
                                  Maximum  Maximum                  Lateral       Total        Flow
                                  Lateral    Total  Time of Max      Inflow      Inflow     Balance
                                   Inflow   Inflow   Occurrence      Volume      Volume       Error
  Node                 Type           CMS      CMS  days hr:min    10^6 ltr    10^6 ltr     Percent
  -------------------------------------------------------------------------------------------------
  J1                   JUNCTION     0.471    0.471     0  02:50        2.84        2.84      -0.010
  J3                   JUNCTION     0.000    0.188     0  05:10           0        3.05       0.957
  CSO7                 JUNCTION     0.132    0.132     0  02:53        0.98        0.98       0.057
  J5                   JUNCTION     0.182    0.254     0  02:53        1.13        1.97       0.053
  CSO9                 JUNCTION     0.193    0.193     0  02:52         1.2         1.2       0.036
  J8                   JUNCTION     0.841    0.968     0  02:54        5.65        6.76       0.056
  CSO8                 JUNCTION     0.786    0.786     0  02:51        4.38        4.38       0.011
  J10                  JUNCTION     0.567    1.053     0  02:49        3.02         6.9      -0.061
  J13                  JUNCTION     0.675    0.675     0  02:50        3.79        3.79      -0.197
  J15                  JUNCTION     0.000    1.329     0  02:50           0        10.4       0.600
  J16                  JUNCTION     0.986    0.986     0  02:50        5.38        5.38      -0.032
  CSO10                JUNCTION     0.333    0.333     0  02:51        1.85        1.85       0.007
  J12                  JUNCTION     0.000    1.123     0  02:50           0        8.57      10.436
  J4                   JUNCTION     0.000    0.081     0  01:22           0       0.841       0.383
  J6                   JUNCTION     0.000    0.028     0  02:41           0       0.586       0.680
  J2                   JUNCTION     0.000    0.039     0  02:10           0       0.906       0.560
  J19                  JUNCTION     0.000    0.271     0  01:46           0        5.84       0.174
  J9                   JUNCTION     0.000    0.075     0  01:53           0        1.68       1.182
  J14                  JUNCTION     0.000    0.123     0  04:30           0        1.58       0.275
  J17                  JUNCTION     0.000    0.033     0  04:20           0       0.373       1.120
  J7                   JUNCTION     0.000    0.127     0  03:05           0        1.11       0.284
  J11                  JUNCTION     0.000    0.486     0  01:47           0        3.89       0.186
  J18                  JUNCTION     0.000    0.202     0  03:05           0        1.63       0.045
  Out_to_WWTP          OUTFALL      0.000    0.271     0  01:48           0        5.83       0.000
  T5                   STORAGE      0.000    0.471     0  02:51           0        2.84      16.431
  T4                   STORAGE      0.000    0.253     0  02:54           0        1.97      19.937
  T6                   STORAGE      0.000    0.967     0  02:55           0        6.75      12.180
  T3                   STORAGE      0.000    1.803     0  02:58           0        7.76      21.799
  T2                   STORAGE      0.000    0.675     0  02:51           0         3.8      33.304
  T1                   STORAGE      0.000    1.309     0  02:53           0        10.3       4.779
  
  
  **********************
  Node Surcharge Summary
  **********************
  
  Surcharging occurs when water rises above the top of the highest conduit.
  ---------------------------------------------------------------------
                                               Max. Height   Min. Depth
                                   Hours       Above Crown    Below Rim
  Node                 Type      Surcharged         Meters       Meters
  ---------------------------------------------------------------------
  CSO7                 JUNCTION        2.01          0.945        0.000
  CSO9                 JUNCTION        1.97          1.682        0.000
  CSO8                 JUNCTION        1.95          1.547        0.000
  CSO10                JUNCTION        1.34          0.560        0.000
  J4                   JUNCTION        1.99          1.150        0.550
  
  
  *********************
  Node Flooding Summary
  *********************
  
  Flooding refers to all water that overflows a node, whether it ponds or not.
  --------------------------------------------------------------------------
                                                             Total   Maximum
                                 Maximum   Time of Max       Flood    Ponded
                        Hours       Rate    Occurrence      Volume     Depth
  Node                 Flooded       CMS   days hr:min    10^6 ltr    Meters
  --------------------------------------------------------------------------
  CSO7                    1.85     0.061      0  02:53       0.139     0.000
  CSO9                    0.93     0.065      0  02:52       0.091     0.000
  CSO8                    1.03     0.301      0  02:51       0.492     0.000
  CSO10                   1.05     0.130      0  02:51       0.221     0.000
  T5                      1.90     0.431      0  02:51       1.134     0.000
  T4                      2.28     0.233      0  02:57       0.606     0.000
  T6                      3.77     0.892      0  02:55       3.825     0.000
  T3                      3.81     1.742      0  02:58       2.189     0.000
  T2                      4.47     0.659      0  02:51       1.481     0.000
  T1                      1.94     1.039      0  02:53       3.655     0.000
  
  
  **********************
  Storage Volume Summary
  **********************
  
  --------------------------------------------------------------------------------------------------
                         Average     Avg  Evap Exfil       Maximum     Max    Time of Max    Maximum
                          Volume    Pcnt  Pcnt  Pcnt        Volume    Pcnt     Occurrence    Outflow
  Storage Unit           1000 m3    Full  Loss  Loss       1000 m3    Full    days hr:min        CMS
  --------------------------------------------------------------------------------------------------
  T5                       0.381      76     0     0         0.500     100       0  02:10      0.039
  T4                       0.371      74     0     0         0.500     100       0  02:41      0.028
  T6                       0.475      79     0     0         0.600     100       0  01:53      0.075
  T3                       1.961      75     0     0         2.600     100       0  02:51      0.123
  T2                       0.774      77     0     0         1.000     100       0  02:33      0.033
  T1                       0.484      69     0     0         0.700     100       0  01:46      0.271
  
  
  ***********************
  Outfall Loading Summary
  ***********************
  
  -----------------------------------------------------------
                         Flow       Avg       Max       Total
                         Freq      Flow      Flow      Volume
  Outfall Node           Pcnt       CMS       CMS    10^6 ltr
  -----------------------------------------------------------
  Out_to_WWTP           99.01     0.209     0.271       5.827
  -----------------------------------------------------------
  System                99.01     0.209     0.271       5.827
  
  
  ********************
  Link Flow Summary
  ********************
  
  -----------------------------------------------------------------------------
                                 Maximum  Time of Max   Maximum    Max/    Max/
                                  |Flow|   Occurrence   |Veloc|    Full    Full
  Link                 Type          CMS  days hr:min     m/sec    Flow   Depth
  -----------------------------------------------------------------------------
  C1                   CONDUIT     0.039     0  02:57      1.08    0.01    0.11
  C6                   CONDUIT     0.072     0  02:54      1.29    1.14    0.78
  C2                   CONDUIT     0.028     0  04:58      1.01    0.03    0.17
  C9                   CONDUIT     0.127     0  03:05      1.32    0.43    0.55
  C16                  CONDUIT     0.488     0  02:43      1.79    0.05    0.15
  C3                   CONDUIT     0.121     0  04:30      1.81    0.05    0.14
  C19                  CONDUIT     0.030     0  04:21      0.61    0.01    0.22
  C11                  CONDUIT     0.180     0  05:12      1.79    0.01    0.12
  C20                  CONDUIT     0.985     0  02:50      3.35    0.03    0.16
  C22                  CONDUIT     0.202     0  03:05      1.65    0.09    0.34
  C12                  CONDUIT     0.075     0  04:35      0.57    0.01    0.31
  C17                  CONDUIT     1.049     0  02:50      3.27    0.05    0.35
  C10                  CONDUIT     0.967     0  02:55      1.66    0.10    0.61
  C13                  CONDUIT     1.803     0  02:58      2.17    0.11    0.78
  C18                  CONDUIT     0.675     0  02:51      1.72    0.03    0.55
  C23                  CONDUIT     1.309     0  02:53      1.70    0.14    0.63
  C4                   CONDUIT     0.471     0  02:51      1.98    0.11    0.61
  C7                   CONDUIT     0.253     0  02:54      1.43    0.06    0.58
  C14                  CONDUIT     0.271     0  01:48      2.08    0.02    0.09
  C5                   CONDUIT     0.081     0  01:22      1.58    1.38    1.00
  C8                   CONDUIT     0.127     0  03:05      1.78    1.60    0.86
  C15                  CONDUIT     0.486     0  01:47      3.48    1.55    0.83
  C21                  CONDUIT     0.202     0  03:05      1.85    1.16    0.69
  V4                   ORIFICE     0.028     0  02:41                      0.35
  V5                   ORIFICE     0.039     0  02:10                      1.00
  V1                   ORIFICE     0.271     0  01:46                      1.00
  V6                   ORIFICE     0.075     0  01:53                      0.43
  V3                   ORIFICE     0.123     0  04:30                      0.65
  V2                   ORIFICE     0.033     0  04:20                      0.24
  
  
  ***************************
  Flow Classification Summary
  ***************************
  
  -------------------------------------------------------------------------------------
                      Adjusted    ---------- Fraction of Time in Flow Class ---------- 
                       /Actual         Up    Down  Sub   Sup   Up    Down  Norm  Inlet 
  Conduit               Length    Dry  Dry   Dry   Crit  Crit  Crit  Crit  Ltd   Ctrl  
  -------------------------------------------------------------------------------------
  C1                      1.00   0.00  0.00  0.00  0.00  1.00  0.00  0.00  0.94  0.00
  C6                      1.00   0.00  0.00  0.00  0.28  0.72  0.00  0.00  0.00  0.00
  C2                      1.00   0.00  0.00  0.00  0.12  0.88  0.00  0.00  0.95  0.00
  C9                      1.00   0.00  0.00  0.00  0.99  0.01  0.00  0.00  1.00  0.00
  C16                     1.00   0.00  0.00  0.00  0.53  0.47  0.00  0.00  0.40  0.00
  C3                      1.00   0.00  0.00  0.00  0.05  0.95  0.00  0.00  0.81  0.00
  C19                     1.00   0.00  0.00  0.00  1.00  0.00  0.00  0.00  1.00  0.00
  C11                     1.00   0.00  0.00  0.00  0.37  0.62  0.00  0.00  1.00  0.00
  C20                     1.00   0.00  0.00  0.00  0.51  0.49  0.00  0.00  0.97  0.00
  C22                     1.00   0.00  0.00  0.00  0.72  0.28  0.00  0.00  1.00  0.00
  C12                     1.00   0.00  0.00  0.00  1.00  0.00  0.00  0.00  1.00  0.00
  C17                     1.00   0.00  0.00  0.00  0.66  0.34  0.00  0.00  0.93  0.00
  C10                     1.00   0.00  0.00  0.00  0.96  0.04  0.00  0.00  0.97  0.00
  C13                     1.00   0.00  0.00  0.00  0.85  0.15  0.00  0.00  0.21  0.00
  C18                     1.00   0.00  0.00  0.00  0.93  0.07  0.00  0.00  0.97  0.00
  C23                     1.00   0.00  0.00  0.00  0.84  0.16  0.00  0.00  0.94  0.00
  C4                      1.00   0.00  0.00  0.00  0.96  0.04  0.00  0.00  0.98  0.00
  C7                      1.00   0.00  0.00  0.00  0.94  0.06  0.00  0.00  0.97  0.00
  C14                     1.00   0.00  0.00  0.00  0.00  0.99  0.00  0.00  0.32  0.00
  C5                      1.00   0.00  0.00  0.00  0.93  0.07  0.00  0.00  0.70  0.00
  C8                      1.00   0.00  0.00  0.00  0.26  0.74  0.00  0.00  0.00  0.00
  C15                     1.00   0.00  0.00  0.00  0.00  1.00  0.00  0.00  0.00  0.00
  C21                     1.00   0.00  0.00  0.00  0.01  0.99  0.00  0.00  0.00  0.00
  
  
  *************************
  Conduit Surcharge Summary
  *************************
  
  ----------------------------------------------------------------------------
                                                           Hours        Hours 
                         --------- Hours Full --------   Above Full   Capacity
  Conduit                Both Ends  Upstream  Dnstream   Normal Flow   Limited
  ----------------------------------------------------------------------------
  C6                          0.01      1.99      0.01      1.89         0.01
  C10                         0.01      0.01      6.38      0.01         0.01
  C13                         0.01      0.01      6.09      0.01         0.01
  C18                         0.01      0.01      6.22      0.01         0.01
  C23                         0.01      0.01      6.42      0.01         0.01
  C4                          0.01      0.01      6.49      0.01         0.01
  C7                          0.01      0.01      6.33      0.01         0.01
  C5                          1.98      2.01      2.08      2.02         1.95
  C8                          0.01      1.97      0.01      1.99         0.01
  C15                         0.01      1.95      0.01      1.98         0.01
  C21                         0.01      1.34      0.01      1.30         0.01
  

  Analysis begun on:  Fri Sep  3 19:17:40 2021
  Analysis ended on:  Fri Sep  3 19:17:40 2021
  Total elapsed time: < 1 sec