
  EPA STORM WATER MANAGEMENT MODEL - VERSION 5.1 (Build 5.3.0.dev0)
  --------------------------------------------------------------

  WARNING 09: time series interval greater than recording interval for Rain Gage RG1
  WARNING 09: time series interval greater than recording interval for Rain Gage RG2
  WARNING 09: time series interval greater than recording interval for Rain Gage RG3
  WARNING 09: time series interval greater than recording interval for Rain Gage RG4
  
  *********************************************************
  NOTE: The summary statistics displayed in this report are
  based on results found at every computational time step,  
  not just on results from each reporting time step.
  *********************************************************
  
  ****************
  Analysis Options
  ****************
  Flow Units ............... CMS
  Process Models:
    Rainfall/Runoff ........ YES
    RDII ................... NO
    Snowmelt ............... NO
    Groundwater ............ NO
    Flow Routing ........... YES
    Ponding Allowed ........ YES
    Water Quality .......... NO
  Infiltration Method ...... HORTON
  Flow Routing Method ...... DYNWAVE
  Surcharge Method ......... EXTRAN
  Starting Date ............ 08/28/2015 00:00:00
  Ending Date .............. 08/28/2015 23:40:00
  Antecedent Dry Days ...... 0.0
  Report Time Step ......... 00:01:00
  Wet Time Step ............ 00:01:00
  Dry Time Step ............ 00:01:00
  Routing Time Step ........ 5.00 sec
  Variable Time Step ....... YES
  Maximum Trials ........... 8
  Number of Threads ........ 1
  Head Tolerance ........... 0.001500 m
  
  
  **************************        Volume         Depth
  Runoff Quantity Continuity     hectare-m            mm
  **************************     ---------       -------
  Total Precipitation ......         3.345        18.565
  Evaporation Loss .........         0.000         0.000
  Infiltration Loss ........         0.000         0.000
  Surface Runoff ...........         3.321        18.431
  Final Storage ............         0.026         0.145
  Continuity Error (%) .....        -0.055
  
  
  **************************        Volume        Volume
  Flow Routing Continuity        hectare-m      10^6 ltr
  **************************     ---------     ---------
  Dry Weather Inflow .......         0.758         7.576
  Wet Weather Inflow .......         3.321        33.212
  Groundwater Inflow .......         0.000         0.000
  RDII Inflow ..............         0.000         0.000
  External Inflow ..........         0.000         0.000
  External Outflow .........         1.624        16.243
  Flooding Loss ............         1.534        15.342
  Evaporation Loss .........         0.000         0.000
  Exfiltration Loss ........         0.000         0.000
  Initial Stored Volume ....         0.000         0.000
  Final Stored Volume ......         0.741         7.410
  Continuity Error (%) .....         4.395
  
  
  *************************
  Highest Continuity Errors
  *************************
  Node T2 (18.72%)
  Node T3 (9.34%)
  Node T4 (8.07%)
  Node T5 (6.44%)
  Node T6 (5.34%)
  
  
  ***************************
  Time-Step Critical Elements
  ***************************
  None
  
  
  ********************************
  Highest Flow Instability Indexes
  ********************************
  Link C15 (2)
  Link C20 (1)
  
  
  *************************
  Routing Time Step Summary
  *************************
  Minimum Time Step           :     4.50 sec
  Average Time Step           :     5.00 sec
  Maximum Time Step           :     5.00 sec
  Percent in Steady State     :     0.00
  Average Iterations per Step :     2.02
  Percent Not Converging      :     0.07
  
  
  ***************************
  Subcatchment Runoff Summary
  ***************************
  
  ------------------------------------------------------------------------------------------------------------------------------
                            Total      Total      Total      Total     Imperv       Perv      Total       Total     Peak  Runoff
                           Precip      Runon       Evap      Infil     Runoff     Runoff     Runoff      Runoff   Runoff   Coeff
  Subcatchment                 mm         mm         mm         mm         mm         mm         mm    10^6 ltr      CMS
  ------------------------------------------------------------------------------------------------------------------------------
  SC01                      17.43       0.00       0.00       0.00      17.33       0.00      17.33        5.72     0.40   0.994
  SC02                      17.49       0.00       0.00       0.00      17.40       0.00      17.40        3.96     0.27   0.995
  SC03                      20.22       0.00       0.00       0.00      20.17       0.00      20.17        3.63     0.27   0.998
  SC04                      17.49       0.00       0.00       0.00      17.30       0.00      17.30        1.19     0.07   0.989
  SC05                      17.43       0.00       0.00       0.00      17.32       0.00      17.32        2.70     0.19   0.994
  SC06                      19.31       0.00       0.00       0.00      19.07       0.00      19.07        6.21     0.32   0.987
  SC07                      17.49       0.00       0.00       0.00      17.30       0.00      17.30        0.82     0.05   0.989
  SC08                      20.22       0.00       0.00       0.00      20.10       0.00      20.10        5.63     0.36   0.994
  SC09                      19.31       0.00       0.00       0.00      19.17       0.00      19.17        1.32     0.08   0.993
  SC010                     17.43       0.00       0.00       0.00      17.29       0.00      17.29        2.03     0.13   0.992
  
  
  ******************
  Node Depth Summary
  ******************
  
  ---------------------------------------------------------------------------------
                                 Average  Maximum  Maximum  Time of Max    Reported
                                   Depth    Depth      HGL   Occurrence   Max Depth
  Node                 Type       Meters   Meters   Meters  days hr:min      Meters
  ---------------------------------------------------------------------------------
  J1                   JUNCTION     0.07     0.15    34.15     0  07:26        0.15
  J3                   JUNCTION     0.10     0.11    18.11     0  10:05        0.11
  CSO7                 JUNCTION     0.09     0.20    34.20     0  07:36        0.20
  J5                   JUNCTION     0.06     0.12    32.12     0  07:42        0.12
  CSO9                 JUNCTION     0.10     0.28    40.28     0  07:27        0.28
  J8                   JUNCTION     0.10     0.21    36.21     0  07:32        0.21
  CSO8                 JUNCTION     0.14     1.64    33.64     0  07:36        0.70
  J10                  JUNCTION     0.10     0.23    29.23     0  07:42        0.23
  J13                  JUNCTION     0.06     0.14    29.14     0  07:37        0.14
  J15                  JUNCTION     0.15     0.26    15.26     0  07:28        0.26
  J16                  JUNCTION     0.06     0.16    30.16     0  07:26        0.16
  CSO10                JUNCTION     0.11     0.31    30.31     0  07:26        0.31
  J12                  JUNCTION     0.72     1.04    27.04     0  07:53        1.04
  J4                   JUNCTION     0.11     0.23    33.23     0  07:43        0.23
  J6                   JUNCTION     0.06     0.07    25.07     0  09:27        0.07
  J2                   JUNCTION     0.07     0.08    25.08     0  08:28        0.08
  J19                  JUNCTION     0.14     0.17     8.17     0  07:24        0.17
  J9                   JUNCTION     0.10     0.11    29.11     0  08:03        0.11
  J14                  JUNCTION     0.09     0.10    20.10     0  08:12        0.10
  J17                  JUNCTION     0.05     0.05    20.05     0  14:31        0.05
  J7                   JUNCTION     0.08     0.17    39.17     0  07:28        0.17
  J11                  JUNCTION     0.10     0.25    31.25     0  07:47        0.25
  J18                  JUNCTION     0.05     0.13    29.13     0  07:28        0.13
  Out_to_WWTP          OUTFALL      0.14     0.17     6.17     0  12:01        0.17
  T5                   STORAGE      3.31     5.00    32.00     0  07:42        5.00
  T4                   STORAGE      3.37     5.00    32.00     0  08:20        5.00
  T6                   STORAGE      3.75     5.00    36.00     0  06:37        5.00
  T3                   STORAGE      3.92     5.00    27.00     0  07:51        5.00
  T2                   STORAGE      3.84     5.00    26.00     0  07:51        5.00
  T1                   STORAGE      2.87     5.00    15.00     0  07:23        5.00
  
  
  *******************
  Node Inflow Summary
  *******************
  
  -------------------------------------------------------------------------------------------------
                                  Maximum  Maximum                  Lateral       Total        Flow
                                  Lateral    Total  Time of Max      Inflow      Inflow     Balance
                                   Inflow   Inflow   Occurrence      Volume      Volume       Error
  Node                 Type           CMS      CMS  days hr:min    10^6 ltr    10^6 ltr     Percent
  -------------------------------------------------------------------------------------------------
  J1                   JUNCTION     0.204    0.204     0  07:26        3.79        3.79      -0.024
  J3                   JUNCTION     0.000    0.127     0  09:27           0        8.55       0.305
  CSO7                 JUNCTION     0.057    0.057     0  07:36        1.39        1.39       0.012
  J5                   JUNCTION     0.075    0.125     0  07:41        1.44        2.83      -0.004
  CSO9                 JUNCTION     0.082    0.082     0  07:26         1.7         1.7       0.007
  J8                   JUNCTION     0.350    0.423     0  07:31        8.04        9.74      -0.001
  CSO8                 JUNCTION     0.375    0.375     0  07:36        6.07        6.07      -0.003
  J10                  JUNCTION     0.285    0.588     0  07:36        4.38        10.5      -0.074
  J13                  JUNCTION     0.286    0.286     0  07:36        4.87        4.87      -0.088
  J15                  JUNCTION     0.000    0.641     0  07:27           0        18.7       0.305
  J16                  JUNCTION     0.420    0.420     0  07:26         6.8         6.8      -0.021
  CSO10                JUNCTION     0.138    0.138     0  07:26         2.3         2.3       0.006
  J12                  JUNCTION     0.000    0.633     0  07:42           0        15.6       5.570
  J4                   JUNCTION     0.000    0.056     0  07:36           0        1.39       0.095
  J6                   JUNCTION     0.000    0.028     0  08:40           0        1.74       0.199
  J2                   JUNCTION     0.000    0.039     0  07:42           0        2.55       0.169
  J19                  JUNCTION     0.000    0.271     0  07:23           0        16.3       0.051
  J9                   JUNCTION     0.000    0.075     0  06:37           0        5.13       0.269
  J14                  JUNCTION     0.000    0.060     0  07:52           0        4.27       0.101
  J17                  JUNCTION     0.000    0.015     0  07:51           0        1.06       0.352
  J7                   JUNCTION     0.000    0.077     0  07:27           0         1.7       0.069
  J11                  JUNCTION     0.000    0.369     0  07:36           0        6.07       0.039
  J18                  JUNCTION     0.000    0.132     0  07:26           0         2.3       0.009
  Out_to_WWTP          OUTFALL      0.000    0.271     0  07:25           0        16.2       0.000
  T5                   STORAGE      0.000    0.191     0  07:27           0         3.8       6.889
  T4                   STORAGE      0.000    0.122     0  07:42           0        2.83       8.784
  T6                   STORAGE      0.000    0.408     0  07:32           0        9.74       5.643
  T3                   STORAGE      0.000    0.844     0  07:56           0        14.8      10.301
  T2                   STORAGE      0.000    0.265     0  07:37           0        4.87      23.036
  T1                   STORAGE      0.000    0.611     0  07:28           0        18.6       1.601
  
  
  **********************
  Node Surcharge Summary
  **********************
  
  Surcharging occurs when water rises above the top of the highest conduit.
  ---------------------------------------------------------------------
                                               Max. Height   Min. Depth
                                   Hours       Above Crown    Below Rim
  Node                 Type      Surcharged         Meters       Meters
  ---------------------------------------------------------------------
  CSO8                 JUNCTION        0.16          1.191        0.356
  
  
  *********************
  Node Flooding Summary
  *********************
  
  Flooding refers to all water that overflows a node, whether it ponds or not.
  --------------------------------------------------------------------------
                                                             Total   Maximum
                                 Maximum   Time of Max       Flood    Ponded
                        Hours       Rate    Occurrence      Volume     Depth
  Node                 Flooded       CMS   days hr:min    10^6 ltr    Meters
  --------------------------------------------------------------------------
  T5                      4.71     0.129      0  08:02       0.761     0.000
  T4                      4.98     0.073      0  08:29       0.553     0.000
  T6                      7.40     0.332      0  07:32       3.730     0.000
  T3                     14.94     0.784      0  07:56       6.506     0.000
  T2                      9.33     0.221      0  07:52       1.937     0.000
  T1                      4.50     0.341      0  07:28       1.854     0.000
  
  
  **********************
  Storage Volume Summary
  **********************
  
  --------------------------------------------------------------------------------------------------
                         Average     Avg  Evap Exfil       Maximum     Max    Time of Max    Maximum
                          Volume    Pcnt  Pcnt  Pcnt        Volume    Pcnt     Occurrence    Outflow
  Storage Unit           1000 m3    Full  Loss  Loss       1000 m3    Full    days hr:min        CMS
  --------------------------------------------------------------------------------------------------
  T5                       0.331      66     0     0         0.500     100       0  07:42      0.039
  T4                       0.337      67     0     0         0.500     100       0  08:20      0.028
  T6                       0.450      75     0     0         0.600     100       0  06:37      0.075
  T3                       2.036      78     0     0         2.600     100       0  07:51      0.060
  T2                       0.767      77     0     0         1.000     100       0  07:51      0.015
  T1                       0.401      57     0     0         0.700     100       0  07:23      0.271
  
  
  ***********************
  Outfall Loading Summary
  ***********************
  
  -----------------------------------------------------------
                         Flow       Avg       Max       Total
                         Freq      Flow      Flow      Volume
  Outfall Node           Pcnt       CMS       CMS    10^6 ltr
  -----------------------------------------------------------
  Out_to_WWTP           99.43     0.192     0.271      16.243
  -----------------------------------------------------------
  System                99.43     0.192     0.271      16.243
  
  
  ********************
  Link Flow Summary
  ********************
  
  -----------------------------------------------------------------------------
                                 Maximum  Time of Max   Maximum    Max/    Max/
                                  |Flow|   Occurrence   |Veloc|    Full    Full
  Link                 Type          CMS  days hr:min     m/sec    Flow   Depth
  -----------------------------------------------------------------------------
  C1                   CONDUIT     0.039     0  08:28      1.07    0.01    0.10
  C6                   CONDUIT     0.053     0  07:43      1.25    0.84    0.58
  C2                   CONDUIT     0.028     0  09:27      1.00    0.03    0.16
  C9                   CONDUIT     0.075     0  07:28      1.09    0.26    0.38
  C16                  CONDUIT     0.331     0  07:48      1.58    0.03    0.12
  C3                   CONDUIT     0.060     0  08:11      1.36    0.02    0.11
  C19                  CONDUIT     0.015     0  09:09      0.43    0.01    0.16
  C11                  CONDUIT     0.127     0  10:05      1.51    0.01    0.09
  C20                  CONDUIT     0.390     0  07:27      2.32    0.01    0.10
  C22                  CONDUIT     0.126     0  07:28      1.31    0.06    0.25
  C12                  CONDUIT     0.075     0  08:03      1.04    0.01    0.29
  C17                  CONDUIT     0.558     0  07:42      2.35    0.03    0.31
  C10                  CONDUIT     0.408     0  07:32      0.94    0.04    0.57
  C13                  CONDUIT     0.844     0  07:56      1.41    0.05    0.76
  C18                  CONDUIT     0.265     0  07:37      1.18    0.01    0.53
  C23                  CONDUIT     0.611     0  07:28      1.04    0.07    0.59
  C4                   CONDUIT     0.191     0  07:27      1.13    0.05    0.57
  C7                   CONDUIT     0.122     0  07:42      0.96    0.03    0.56
  C14                  CONDUIT     0.271     0  07:25      2.08    0.02    0.09
  C5                   CONDUIT     0.056     0  07:36      1.23    0.95    0.83
  C8                   CONDUIT     0.077     0  07:27      1.33    0.97    0.71
  C15                  CONDUIT     0.369     0  07:36      2.81    1.17    0.77
  C21                  CONDUIT     0.132     0  07:26      1.73    0.76    0.50
  V4                   ORIFICE     0.028     0  08:40                      0.35
  V5                   ORIFICE     0.039     0  07:42                      1.00
  V1                   ORIFICE     0.271     0  07:23                      1.00
  V6                   ORIFICE     0.075     0  06:37                      0.43
  V3                   ORIFICE     0.060     0  07:52                      0.38
  V2                   ORIFICE     0.015     0  07:51                      0.11
  
  
  ***************************
  Flow Classification Summary
  ***************************
  
  -------------------------------------------------------------------------------------
                      Adjusted    ---------- Fraction of Time in Flow Class ---------- 
                       /Actual         Up    Down  Sub   Sup   Up    Down  Norm  Inlet 
  Conduit               Length    Dry  Dry   Dry   Crit  Crit  Crit  Crit  Ltd   Ctrl  
  -------------------------------------------------------------------------------------
  C1                      1.00   0.00  0.00  0.00  0.00  1.00  0.00  0.00  0.97  0.00
  C6                      1.00   0.00  0.00  0.00  0.01  0.99  0.00  0.00  0.00  0.00
  C2                      1.00   0.00  0.00  0.00  0.11  0.89  0.00  0.00  0.98  0.00
  C9                      1.00   0.00  0.00  0.00  1.00  0.00  0.00  0.00  1.00  0.00
  C16                     1.00   0.00  0.00  0.00  0.34  0.66  0.00  0.00  0.15  0.00
  C3                      1.00   0.00  0.00  0.00  0.02  0.98  0.00  0.00  0.90  0.00
  C19                     1.00   0.00  0.00  0.00  1.00  0.00  0.00  0.00  1.00  0.00
  C11                     1.00   0.00  0.00  0.00  0.26  0.74  0.00  0.00  1.00  0.00
  C20                     1.00   0.00  0.00  0.00  0.49  0.51  0.00  0.00  0.99  0.00
  C22                     1.00   0.00  0.00  0.00  0.89  0.11  0.00  0.00  1.00  0.00
  C12                     1.00   0.00  0.00  0.00  0.96  0.03  0.00  0.00  1.00  0.00
  C17                     1.00   0.00  0.00  0.00  0.70  0.30  0.00  0.00  0.97  0.00
  C10                     1.00   0.00  0.00  0.00  0.94  0.06  0.00  0.00  0.98  0.00
  C13                     1.00   0.00  0.00  0.00  0.94  0.06  0.00  0.00  0.26  0.00
  C18                     1.00   0.00  0.00  0.00  0.97  0.03  0.00  0.00  0.98  0.00
  C23                     1.00   0.00  0.00  0.00  0.93  0.07  0.00  0.00  0.96  0.00
  C4                      1.00   0.00  0.00  0.00  0.94  0.06  0.00  0.00  0.98  0.00
  C7                      1.00   0.00  0.00  0.00  0.95  0.05  0.00  0.00  0.97  0.00
  C14                     1.00   0.00  0.00  0.00  0.00  1.00  0.00  0.00  0.48  0.00
  C5                      1.00   0.00  0.00  0.00  0.87  0.13  0.00  0.00  0.98  0.00
  C8                      1.00   0.00  0.00  0.00  0.10  0.90  0.00  0.00  0.00  0.00
  C15                     1.00   0.00  0.00  0.00  0.00  1.00  0.00  0.00  0.01  0.00
  C21                     1.00   0.00  0.00  0.00  0.00  1.00  0.00  0.00  0.00  0.00
  
  
  *************************
  Conduit Surcharge Summary
  *************************
  
  ----------------------------------------------------------------------------
                                                           Hours        Hours 
                         --------- Hours Full --------   Above Full   Capacity
  Conduit                Both Ends  Upstream  Dnstream   Normal Flow   Limited
  ----------------------------------------------------------------------------
  C10                         0.01      0.01     19.92      0.01         0.01
  C13                         0.01      0.01     19.04      0.01         0.01
  C18                         0.01      0.01     18.90      0.01         0.01
  C23                         0.01      0.01     19.68      0.01         0.01
  C4                          0.01      0.01     19.82      0.01         0.01
  C7                          0.01      0.01     19.49      0.01         0.01
  C15                         0.01      0.16      0.01      0.28         0.01
  

  Analysis begun on:  Mon Sep 20 23:09:00 2021
  Analysis ended on:  Mon Sep 20 23:09:01 2021
  Total elapsed time: 00:00:01