
  EPA STORM WATER MANAGEMENT MODEL - VERSION 5.1 (Build 5.3.0.dev0)
  --------------------------------------------------------------

  WARNING 09: time series interval greater than recording interval for Rain Gage RG1
  WARNING 09: time series interval greater than recording interval for Rain Gage RG2
  WARNING 09: time series interval greater than recording interval for Rain Gage RG3
  WARNING 09: time series interval greater than recording interval for Rain Gage RG4
  
  *********************************************************
  NOTE: The summary statistics displayed in this report are
  based on results found at every computational time step,  
  not just on results from each reporting time step.
  *********************************************************
  
  ****************
  Analysis Options
  ****************
  Flow Units ............... CMS
  Process Models:
    Rainfall/Runoff ........ YES
    RDII ................... NO
    Snowmelt ............... NO
    Groundwater ............ NO
    Flow Routing ........... YES
    Ponding Allowed ........ YES
    Water Quality .......... NO
  Infiltration Method ...... HORTON
  Flow Routing Method ...... DYNWAVE
  Surcharge Method ......... EXTRAN
  Starting Date ............ 08/28/2015 00:00:00
  Ending Date .............. 08/28/2015 23:40:00
  Antecedent Dry Days ...... 0.0
  Report Time Step ......... 00:01:00
  Wet Time Step ............ 00:01:00
  Dry Time Step ............ 00:01:00
  Routing Time Step ........ 5.00 sec
  Variable Time Step ....... YES
  Maximum Trials ........... 8
  Number of Threads ........ 1
  Head Tolerance ........... 0.001500 m
  
  
  **************************        Volume         Depth
  Runoff Quantity Continuity     hectare-m            mm
  **************************     ---------       -------
  Total Precipitation ......         2.429        13.480
  Evaporation Loss .........         0.000         0.000
  Infiltration Loss ........         0.000         0.000
  Surface Runoff ...........         2.404        13.343
  Final Storage ............         0.027         0.148
  Continuity Error (%) .....        -0.087
  
  
  **************************        Volume        Volume
  Flow Routing Continuity        hectare-m      10^6 ltr
  **************************     ---------     ---------
  Dry Weather Inflow .......         0.758         7.576
  Wet Weather Inflow .......         2.404        24.045
  Groundwater Inflow .......         0.000         0.000
  RDII Inflow ..............         0.000         0.000
  External Inflow ..........         0.000         0.000
  External Outflow .........         1.271        12.707
  Flooding Loss ............         0.990         9.902
  Evaporation Loss .........         0.000         0.000
  Exfiltration Loss ........         0.000         0.000
  Initial Stored Volume ....         0.000         0.000
  Final Stored Volume ......         0.731         7.309
  Continuity Error (%) .....         5.384
  
  
  *************************
  Highest Continuity Errors
  *************************
  Node T2 (23.53%)
  Node T3 (13.22%)
  Node T4 (10.42%)
  Node T5 (7.97%)
  Node J12 (7.18%)
  
  
  ***************************
  Time-Step Critical Elements
  ***************************
  None
  
  
  ********************************
  Highest Flow Instability Indexes
  ********************************
  All links are stable.
  
  
  *************************
  Routing Time Step Summary
  *************************
  Minimum Time Step           :     1.63 sec
  Average Time Step           :     5.00 sec
  Maximum Time Step           :     5.00 sec
  Percent in Steady State     :     0.00
  Average Iterations per Step :     2.12
  Percent Not Converging      :     0.37
  
  
  ***************************
  Subcatchment Runoff Summary
  ***************************
  
  ------------------------------------------------------------------------------------------------------------------------------
                            Total      Total      Total      Total     Imperv       Perv      Total       Total     Peak  Runoff
                           Precip      Runon       Evap      Infil     Runoff     Runoff     Runoff      Runoff   Runoff   Coeff
  Subcatchment                 mm         mm         mm         mm         mm         mm         mm    10^6 ltr      CMS
  ------------------------------------------------------------------------------------------------------------------------------
  SC01                      12.58       0.00       0.00       0.00      12.48       0.00      12.48        4.12     0.84   0.992
  SC02                      12.85       0.00       0.00       0.00      12.74       0.00      12.74        2.90     0.46   0.992
  SC03                      12.54       0.00       0.00       0.00      12.48       0.00      12.48        2.25     0.54   0.995
  SC04                      12.85       0.00       0.00       0.00      12.67       0.00      12.67        0.87     0.10   0.986
  SC05                      12.58       0.00       0.00       0.00      12.48       0.00      12.48        1.95     0.38   0.992
  SC06                      16.50       0.00       0.00       0.00      16.24       0.00      16.24        5.29     0.59   0.984
  SC07                      12.85       0.00       0.00       0.00      12.67       0.00      12.67        0.60     0.07   0.986
  SC08                      12.54       0.00       0.00       0.00      12.44       0.00      12.44        3.48     0.49   0.992
  SC09                      16.50       0.00       0.00       0.00      16.31       0.00      16.31        1.13     0.16   0.988
  SC010                     12.58       0.00       0.00       0.00      12.46       0.00      12.46        1.46     0.25   0.990
  
  
  ******************
  Node Depth Summary
  ******************
  
  ---------------------------------------------------------------------------------
                                 Average  Maximum  Maximum  Time of Max    Reported
                                   Depth    Depth      HGL   Occurrence   Max Depth
  Node                 Type       Meters   Meters   Meters  days hr:min      Meters
  ---------------------------------------------------------------------------------
  J1                   JUNCTION     0.06     0.20    34.20     0  14:21        0.20
  J3                   JUNCTION     0.09     0.13    18.13     0  20:32        0.13
  CSO7                 JUNCTION     0.08     1.20    35.20     0  15:28        1.20
  J5                   JUNCTION     0.05     0.14    32.14     0  15:31        0.14
  CSO9                 JUNCTION     0.13     2.00    42.00     0  14:40        2.00
  J8                   JUNCTION     0.09     0.27    36.27     0  14:47        0.27
  CSO8                 JUNCTION     0.11     2.00    34.00     0  15:26        2.00
  J10                  JUNCTION     0.08     0.26    29.26     0  15:32        0.26
  J13                  JUNCTION     0.05     0.18    29.18     0  15:26        0.18
  J15                  JUNCTION     0.13     0.33    15.33     0  14:27        0.33
  J16                  JUNCTION     0.05     0.22    30.22     0  14:21        0.22
  CSO10                JUNCTION     0.10     1.00    31.00     0  14:20        1.00
  J12                  JUNCTION     0.46     1.06    27.06     0  15:30        1.06
  J4                   JUNCTION     0.10     1.21    34.21     0  15:28        0.76
  J6                   JUNCTION     0.05     0.07    25.07     0  15:56        0.07
  J2                   JUNCTION     0.06     0.08    25.08     0  15:15        0.08
  J19                  JUNCTION     0.12     0.17     8.17     0  14:26        0.17
  J9                   JUNCTION     0.09     0.11    29.11     0  14:07        0.11
  J14                  JUNCTION     0.08     0.15    20.15     0  20:30        0.15
  J17                  JUNCTION     0.04     0.05    20.05     0  17:51        0.05
  J7                   JUNCTION     0.07     0.23    39.23     0  14:53        0.23
  J11                  JUNCTION     0.08     0.27    31.27     0  15:32        0.27
  J18                  JUNCTION     0.04     0.16    29.16     0  14:27        0.16
  Out_to_WWTP          OUTFALL      0.12     0.17     6.17     0  16:18        0.17
  T5                   STORAGE      2.32     5.00    32.00     0  14:27        5.00
  T4                   STORAGE      2.36     5.00    32.00     0  15:14        5.00
  T6                   STORAGE      2.94     5.00    36.00     0  12:52        5.00
  T3                   STORAGE      2.93     5.00    27.00     0  14:49        5.00
  T2                   STORAGE      2.73     5.00    26.00     0  14:43        5.00
  T1                   STORAGE      1.98     5.00    15.00     0  14:25        5.00
  
  
  *******************
  Node Inflow Summary
  *******************
  
  -------------------------------------------------------------------------------------------------
                                  Maximum  Maximum                  Lateral       Total        Flow
                                  Lateral    Total  Time of Max      Inflow      Inflow     Balance
                                   Inflow   Inflow   Occurrence      Volume      Volume       Error
  Node                 Type           CMS      CMS  days hr:min    10^6 ltr    10^6 ltr     Percent
  -------------------------------------------------------------------------------------------------
  J1                   JUNCTION     0.393    0.393     0  14:21        3.04        3.04      -0.034
  J3                   JUNCTION     0.000    0.181     0  20:30           0        6.99       0.371
  CSO7                 JUNCTION     0.080    0.080     0  15:26        1.17        1.17       0.020
  J5                   JUNCTION     0.108    0.166     0  15:31        1.12        2.29      -0.002
  CSO9                 JUNCTION     0.164    0.164     0  14:41        1.51        1.51      -0.008
  J8                   JUNCTION     0.615    0.735     0  14:46        7.12        8.61       0.011
  CSO8                 JUNCTION     0.497    0.497     0  15:26        3.93        3.93      -0.010
  J10                  JUNCTION     0.547    0.770     0  15:31           3        6.92      -0.083
  J13                  JUNCTION     0.472    0.472     0  15:26        3.81        3.81      -0.076
  J15                  JUNCTION     0.000    1.096     0  14:22           0        14.7       0.396
  J16                  JUNCTION     0.853    0.853     0  14:21         5.2         5.2      -0.046
  CSO10                JUNCTION     0.252    0.252     0  14:21        1.73        1.73      -0.011
  J12                  JUNCTION     0.000    0.804     0  15:32           0        11.2       7.736
  J4                   JUNCTION     0.000    0.080     0  15:26           0        1.17       0.066
  J6                   JUNCTION     0.000    0.028     0  15:14           0        1.41       0.250
  J2                   JUNCTION     0.000    0.039     0  14:27           0        2.03       0.213
  J19                  JUNCTION     0.000    0.271     0  14:25           0        12.7       0.063
  J9                   JUNCTION     0.000    0.075     0  12:52           0        4.26       0.272
  J14                  JUNCTION     0.000    0.123     0  20:30           0        3.56       0.122
  J17                  JUNCTION     0.000    0.015     0  14:43           0       0.852       0.428
  J7                   JUNCTION     0.000    0.127     0  14:53           0        1.49       0.096
  J11                  JUNCTION     0.000    0.462     0  15:26           0        3.93       0.038
  J18                  JUNCTION     0.000    0.202     0  14:26           0        1.73       0.003
  Out_to_WWTP          OUTFALL      0.000    0.271     0  14:27           0        12.7       0.000
  T5                   STORAGE      0.000    0.362     0  14:21           0        3.04       8.665
  T4                   STORAGE      0.000    0.162     0  15:31           0        2.29      11.626
  T6                   STORAGE      0.000    0.701     0  14:47           0        8.61       5.665
  T3                   STORAGE      0.000    1.173     0  15:33           0        10.4      15.235
  T2                   STORAGE      0.000    0.433     0  15:26           0        3.81      30.778
  T1                   STORAGE      0.000    0.946     0  14:27           0        14.7       1.877
  
  
  **********************
  Node Surcharge Summary
  **********************
  
  Surcharging occurs when water rises above the top of the highest conduit.
  ---------------------------------------------------------------------
                                               Max. Height   Min. Depth
                                   Hours       Above Crown    Below Rim
  Node                 Type      Surcharged         Meters       Meters
  ---------------------------------------------------------------------
  CSO7                 JUNCTION        0.38          0.945        0.000
  CSO9                 JUNCTION        0.87          1.682        0.000
  CSO8                 JUNCTION        0.21          1.547        0.000
  CSO10                JUNCTION        0.19          0.560        0.000
  J4                   JUNCTION        0.19          0.909        0.791
  
  
  *********************
  Node Flooding Summary
  *********************
  
  Flooding refers to all water that overflows a node, whether it ponds or not.
  --------------------------------------------------------------------------
                                                             Total   Maximum
                                 Maximum   Time of Max       Flood    Ponded
                        Hours       Rate    Occurrence      Volume     Depth
  Node                 Flooded       CMS   days hr:min    10^6 ltr    Meters
  --------------------------------------------------------------------------
  CSO7                    0.02     0.005      0  15:28       0.000     0.000
  CSO9                    0.24     0.041      0  14:41       0.012     0.000
  CSO8                    0.02     0.149      0  15:26       0.003     0.000
  CSO10                   0.07     0.056      0  14:21       0.005     0.000
  T5                      2.12     0.255      0  14:27       0.534     0.000
  T4                      2.24     0.134      0  15:31       0.314     0.000
  T6                      5.16     0.626      0  14:47       3.571     0.000
  T3                      6.85     1.113      0  15:33       2.858     0.000
  T2                      4.76     0.418      0  15:27       1.115     0.000
  T1                      1.70     0.676      0  14:27       1.489     0.000
  
  
  **********************
  Storage Volume Summary
  **********************
  
  --------------------------------------------------------------------------------------------------
                         Average     Avg  Evap Exfil       Maximum     Max    Time of Max    Maximum
                          Volume    Pcnt  Pcnt  Pcnt        Volume    Pcnt     Occurrence    Outflow
  Storage Unit           1000 m3    Full  Loss  Loss       1000 m3    Full    days hr:min        CMS
  --------------------------------------------------------------------------------------------------
  T5                       0.232      46     0     0         0.500     100       0  14:27      0.039
  T4                       0.236      47     0     0         0.500     100       0  15:14      0.028
  T6                       0.353      59     0     0         0.600     100       0  12:52      0.075
  T3                       1.525      59     0     0         2.600     100       0  14:49      0.123
  T2                       0.546      55     0     0         1.000     100       0  14:43      0.015
  T1                       0.277      40     0     0         0.700     100       0  14:25      0.271
  
  
  ***********************
  Outfall Loading Summary
  ***********************
  
  -----------------------------------------------------------
                         Flow       Avg       Max       Total
                         Freq      Flow      Flow      Volume
  Outfall Node           Pcnt       CMS       CMS    10^6 ltr
  -----------------------------------------------------------
  Out_to_WWTP           99.43     0.150     0.271      12.707
  -----------------------------------------------------------
  System                99.43     0.150     0.271      12.707
  
  
  ********************
  Link Flow Summary
  ********************
  
  -----------------------------------------------------------------------------
                                 Maximum  Time of Max   Maximum    Max/    Max/
                                  |Flow|   Occurrence   |Veloc|    Full    Full
  Link                 Type          CMS  days hr:min     m/sec    Flow   Depth
  -----------------------------------------------------------------------------
  C1                   CONDUIT     0.039     0  15:15      1.04    0.01    0.10
  C6                   CONDUIT     0.070     0  15:31      1.29    1.12    0.73
  C2                   CONDUIT     0.028     0  15:56      1.00    0.03    0.17
  C9                   CONDUIT     0.126     0  14:53      1.29    0.43    0.50
  C16                  CONDUIT     0.409     0  15:32      1.65    0.04    0.13
  C3                   CONDUIT     0.121     0  20:30      1.82    0.05    0.14
  C19                  CONDUIT     0.015     0  16:04      0.44    0.01    0.19
  C11                  CONDUIT     0.173     0  20:32      1.79    0.01    0.11
  C20                  CONDUIT     0.781     0  14:21      3.43    0.02    0.13
  C22                  CONDUIT     0.199     0  14:27      1.53    0.09    0.31
  C12                  CONDUIT     0.075     0  14:07      0.94    0.01    0.29
  C17                  CONDUIT     0.729     0  15:32      1.88    0.04    0.33
  C10                  CONDUIT     0.701     0  14:47      0.94    0.07    0.59
  C13                  CONDUIT     1.173     0  15:33      0.85    0.07    0.76
  C18                  CONDUIT     0.433     0  15:26      1.01    0.02    0.54
  C23                  CONDUIT     0.946     0  14:27      1.01    0.10    0.61
  C4                   CONDUIT     0.362     0  14:21      1.13    0.09    0.60
  C7                   CONDUIT     0.162     0  15:31      0.83    0.04    0.57
  C14                  CONDUIT     0.271     0  14:27      2.08    0.02    0.09
  C5                   CONDUIT     0.080     0  15:26      1.56    1.36    1.00
  C8                   CONDUIT     0.127     0  14:53      1.83    1.60    0.86
  C15                  CONDUIT     0.462     0  15:26      3.78    1.47    0.80
  C21                  CONDUIT     0.202     0  14:26      1.84    1.16    0.68
  V4                   ORIFICE     0.028     0  15:14                      0.35
  V5                   ORIFICE     0.039     0  14:27                      1.00
  V1                   ORIFICE     0.271     0  14:25                      1.00
  V6                   ORIFICE     0.075     0  12:52                      0.43
  V3                   ORIFICE     0.123     0  20:30                      0.65
  V2                   ORIFICE     0.015     0  14:43                      0.11
  
  
  ***************************
  Flow Classification Summary
  ***************************
  
  -------------------------------------------------------------------------------------
                      Adjusted    ---------- Fraction of Time in Flow Class ---------- 
                       /Actual         Up    Down  Sub   Sup   Up    Down  Norm  Inlet 
  Conduit               Length    Dry  Dry   Dry   Crit  Crit  Crit  Crit  Ltd   Ctrl  
  -------------------------------------------------------------------------------------
  C1                      1.00   0.00  0.00  0.00  0.04  0.96  0.00  0.00  0.96  0.00
  C6                      1.00   0.00  0.00  0.00  0.03  0.97  0.00  0.00  0.00  0.00
  C2                      1.00   0.00  0.00  0.00  0.12  0.88  0.00  0.00  0.97  0.00
  C9                      1.00   0.00  0.00  0.00  1.00  0.00  0.00  0.00  1.00  0.00
  C16                     1.00   0.00  0.05  0.00  0.40  0.54  0.00  0.00  0.33  0.00
  C3                      1.00   0.00  0.00  0.00  0.03  0.96  0.00  0.00  0.92  0.00
  C19                     1.00   0.00  0.00  0.00  1.00  0.00  0.00  0.00  1.00  0.00
  C11                     1.00   0.00  0.00  0.00  0.18  0.81  0.00  0.00  1.00  0.00
  C20                     1.00   0.00  0.00  0.00  0.52  0.48  0.00  0.00  0.99  0.00
  C22                     1.00   0.00  0.00  0.00  0.95  0.05  0.00  0.00  1.00  0.00
  C12                     1.00   0.00  0.00  0.00  0.83  0.17  0.00  0.00  1.00  0.00
  C17                     1.00   0.00  0.00  0.00  0.50  0.50  0.00  0.00  0.99  0.00
  C10                     1.00   0.00  0.00  0.00  0.92  0.08  0.00  0.00  0.97  0.00
  C13                     1.00   0.00  0.00  0.00  0.88  0.12  0.00  0.00  0.49  0.00
  C18                     1.00   0.00  0.00  0.00  0.94  0.06  0.00  0.00  0.98  0.00
  C23                     1.00   0.00  0.00  0.00  0.87  0.13  0.00  0.00  0.96  0.00
  C4                      1.00   0.00  0.00  0.00  0.87  0.13  0.00  0.00  0.98  0.00
  C7                      1.00   0.00  0.00  0.00  0.90  0.10  0.00  0.00  0.97  0.00
  C14                     1.00   0.00  0.00  0.00  0.00  1.00  0.00  0.00  0.59  0.00
  C5                      1.00   0.00  0.00  0.00  0.91  0.09  0.00  0.00  0.97  0.00
  C8                      1.00   0.00  0.00  0.00  0.15  0.85  0.00  0.00  0.00  0.00
  C15                     1.00   0.05  0.00  0.00  0.00  0.95  0.00  0.00  0.00  0.00
  C21                     1.00   0.00  0.00  0.00  0.00  1.00  0.00  0.00  0.00  0.00
  
  
  *************************
  Conduit Surcharge Summary
  *************************
  
  ----------------------------------------------------------------------------
                                                           Hours        Hours 
                         --------- Hours Full --------   Above Full   Capacity
  Conduit                Both Ends  Upstream  Dnstream   Normal Flow   Limited
  ----------------------------------------------------------------------------
  C6                          0.01      0.19      0.01      0.09         0.01
  C10                         0.01      0.01     18.03      0.01         0.01
  C13                         0.01      0.01     13.73      0.01         0.01
  C18                         0.01      0.01     12.78      0.01         0.01
  C23                         0.01      0.01     12.71      0.01         0.01
  C4                          0.01      0.01     16.18      0.01         0.01
  C7                          0.01      0.01     16.03      0.01         0.01
  C5                          0.30      0.38      0.47      0.47         0.27
  C8                          0.01      0.87      0.01      0.87         0.01
  C15                         0.01      0.21      0.01      0.23         0.01
  C21                         0.01      0.19      0.01      0.15         0.01
  

  Analysis begun on:  Mon Sep 20 23:10:26 2021
  Analysis ended on:  Mon Sep 20 23:10:26 2021
  Total elapsed time: < 1 sec