
  EPA STORM WATER MANAGEMENT MODEL - VERSION 5.1 (Build 5.3.0.dev0)
  --------------------------------------------------------------

  WARNING 09: time series interval greater than recording interval for Rain Gage RG1
  WARNING 09: time series interval greater than recording interval for Rain Gage RG2
  WARNING 09: time series interval greater than recording interval for Rain Gage RG3
  WARNING 09: time series interval greater than recording interval for Rain Gage RG4
  
  *********************************************************
  NOTE: The summary statistics displayed in this report are
  based on results found at every computational time step,  
  not just on results from each reporting time step.
  *********************************************************
  
  ****************
  Analysis Options
  ****************
  Flow Units ............... CMS
  Process Models:
    Rainfall/Runoff ........ YES
    RDII ................... NO
    Snowmelt ............... NO
    Groundwater ............ NO
    Flow Routing ........... YES
    Ponding Allowed ........ YES
    Water Quality .......... NO
  Infiltration Method ...... HORTON
  Flow Routing Method ...... DYNWAVE
  Surcharge Method ......... EXTRAN
  Starting Date ............ 08/28/2015 00:00:00
  Ending Date .............. 08/28/2015 23:40:00
  Antecedent Dry Days ...... 0.0
  Report Time Step ......... 00:01:00
  Wet Time Step ............ 00:01:00
  Dry Time Step ............ 00:01:00
  Routing Time Step ........ 5.00 sec
  Variable Time Step ....... YES
  Maximum Trials ........... 8
  Number of Threads ........ 1
  Head Tolerance ........... 0.001500 m
  
  
  **************************        Volume         Depth
  Runoff Quantity Continuity     hectare-m            mm
  **************************     ---------       -------
  Total Precipitation ......         1.739         9.652
  Evaporation Loss .........         0.000         0.000
  Infiltration Loss ........         0.000         0.000
  Surface Runoff ...........         1.594         8.845
  Final Storage ............         0.148         0.822
  Continuity Error (%) .....        -0.147
  
  
  **************************        Volume        Volume
  Flow Routing Continuity        hectare-m      10^6 ltr
  **************************     ---------     ---------
  Dry Weather Inflow .......         0.758         7.576
  Wet Weather Inflow .......         1.592        15.920
  Groundwater Inflow .......         0.000         0.000
  RDII Inflow ..............         0.000         0.000
  External Inflow ..........         0.000         0.000
  External Outflow .........         0.799         7.987
  Flooding Loss ............         0.384         3.839
  Evaporation Loss .........         0.000         0.000
  Exfiltration Loss ........         0.000         0.000
  Initial Stored Volume ....         0.000         0.000
  Final Stored Volume ......         0.859         8.591
  Continuity Error (%) .....        13.107
  
  
  *************************
  Highest Continuity Errors
  *************************
  Node T2 (25.14%)
  Node T3 (21.28%)
  Node T5 (19.60%)
  Node T6 (16.89%)
  Node T4 (16.73%)
  
  
  ***************************
  Time-Step Critical Elements
  ***************************
  None
  
  
  ********************************
  Highest Flow Instability Indexes
  ********************************
  All links are stable.
  
  
  *************************
  Routing Time Step Summary
  *************************
  Minimum Time Step           :     4.50 sec
  Average Time Step           :     5.00 sec
  Maximum Time Step           :     5.00 sec
  Percent in Steady State     :     0.00
  Average Iterations per Step :     2.00
  Percent Not Converging      :     0.00
  
  
  ***************************
  Subcatchment Runoff Summary
  ***************************
  
  ------------------------------------------------------------------------------------------------------------------------------
                            Total      Total      Total      Total     Imperv       Perv      Total       Total     Peak  Runoff
                           Precip      Runon       Evap      Infil     Runoff     Runoff     Runoff      Runoff   Runoff   Coeff
  Subcatchment                 mm         mm         mm         mm         mm         mm         mm    10^6 ltr      CMS
  ------------------------------------------------------------------------------------------------------------------------------
  SC01                       9.94       0.00       0.00       0.00       9.33       0.00       9.33        3.08     0.33   0.939
  SC02                      13.16       0.00       0.00       0.00      12.55       0.00      12.55        2.85     0.34   0.953
  SC03                       7.70       0.00       0.00       0.00       7.34       0.00       7.34        1.32     0.25   0.954
  SC04                      13.16       0.00       0.00       0.00      11.86       0.00      11.86        0.82     0.09   0.901
  SC05                       9.94       0.00       0.00       0.00       9.28       0.00       9.28        1.45     0.15   0.934
  SC06                       8.43       0.00       0.00       0.00       7.09       0.00       7.09        2.31     0.28   0.841
  SC07                      13.16       0.00       0.00       0.00      11.86       0.00      11.86        0.56     0.06   0.902
  SC08                       7.70       0.00       0.00       0.00       6.97       0.00       6.97        1.95     0.30   0.905
  SC09                       8.43       0.00       0.00       0.00       7.56       0.00       7.56        0.52     0.07   0.897
  SC010                      9.94       0.00       0.00       0.00       9.12       0.00       9.12        1.07     0.11   0.917
  
  
  ******************
  Node Depth Summary
  ******************
  
  ---------------------------------------------------------------------------------
                                 Average  Maximum  Maximum  Time of Max    Reported
                                   Depth    Depth      HGL   Occurrence   Max Depth
  Node                 Type       Meters   Meters   Meters  days hr:min      Meters
  ---------------------------------------------------------------------------------
  J1                   JUNCTION     0.05     0.13    34.13     0  21:42        0.13
  J3                   JUNCTION     0.07     0.11    18.11     0  23:40        0.11
  CSO7                 JUNCTION     0.08     0.22    34.22     0  22:06        0.22
  J5                   JUNCTION     0.05     0.13    32.13     0  22:07        0.13
  CSO9                 JUNCTION     0.07     0.24    40.24     0  21:57        0.24
  J8                   JUNCTION     0.07     0.19    36.19     0  21:58        0.19
  CSO8                 JUNCTION     0.08     0.38    32.38     0  21:46        0.37
  J10                  JUNCTION     0.06     0.21    29.21     0  21:52        0.21
  J13                  JUNCTION     0.05     0.15    29.15     0  22:06        0.15
  J15                  JUNCTION     0.11     0.24    15.24     0  21:59        0.24
  J16                  JUNCTION     0.05     0.14    30.14     0  21:42        0.14
  CSO10                JUNCTION     0.08     0.27    30.27     0  21:41        0.27
  J12                  JUNCTION     0.11     0.88    26.88     0  23:35        0.88
  J4                   JUNCTION     0.09     0.25    33.25     0  22:08        0.25
  J6                   JUNCTION     0.04     0.07    25.07     0  23:06        0.07
  J2                   JUNCTION     0.05     0.08    25.08     0  23:18        0.08
  J19                  JUNCTION     0.10     0.17     8.17     0  21:49        0.17
  J9                   JUNCTION     0.07     0.11    29.11     0  23:00        0.11
  J14                  JUNCTION     0.07     0.10    20.10     0  23:40        0.10
  J17                  JUNCTION     0.03     0.05    20.05     0  23:03        0.05
  J7                   JUNCTION     0.06     0.16    39.16     0  21:59        0.16
  J11                  JUNCTION     0.06     0.22    31.22     0  21:52        0.22
  J18                  JUNCTION     0.04     0.12    29.12     0  21:48        0.12
  Out_to_WWTP          OUTFALL      0.10     0.17     6.17     0  21:48        0.17
  T5                   STORAGE      1.09     5.00    32.00     0  22:33        5.00
  T4                   STORAGE      1.06     5.00    32.00     0  22:05        5.00
  T6                   STORAGE      1.28     5.00    36.00     0  22:18        5.00
  T3                   STORAGE      1.40     4.90    26.90     0  23:40        4.90
  T2                   STORAGE      1.17     5.00    26.00     0  21:44        5.00
  T1                   STORAGE      0.98     5.00    15.00     0  21:48        5.00
  
  
  *******************
  Node Inflow Summary
  *******************
  
  -------------------------------------------------------------------------------------------------
                                  Maximum  Maximum                  Lateral       Total        Flow
                                  Lateral    Total  Time of Max      Inflow      Inflow     Balance
                                   Inflow   Inflow   Occurrence      Volume      Volume       Error
  Node                 Type           CMS      CMS  days hr:min    10^6 ltr    10^6 ltr     Percent
  -------------------------------------------------------------------------------------------------
  J1                   JUNCTION     0.161    0.161     0  21:41        2.54        2.54       0.202
  J3                   JUNCTION     0.000    0.127     0  23:40           0        4.65       0.619
  CSO7                 JUNCTION     0.064    0.064     0  22:06        1.13        1.13       0.090
  J5                   JUNCTION     0.091    0.146     0  22:06        1.07        2.19       0.340
  CSO9                 JUNCTION     0.072    0.072     0  21:56       0.903       0.903       0.129
  J8                   JUNCTION     0.298    0.357     0  21:56        4.14        5.03       0.472
  CSO8                 JUNCTION     0.304    0.304     0  21:46         2.4         2.4       0.087
  J10                  JUNCTION     0.257    0.479     0  21:51        2.07        4.44       0.464
  J13                  JUNCTION     0.344    0.344     0  22:01        3.76        3.76       0.201
  J15                  JUNCTION     0.000    0.525     0  21:57           0        10.6       1.011
  J16                  JUNCTION     0.337    0.337     0  21:41        4.15        4.15       0.207
  CSO10                JUNCTION     0.110    0.110     0  21:41        1.34        1.34       0.165
  J12                  JUNCTION     0.000    0.522     0  21:52           0        7.04      10.934
  J4                   JUNCTION     0.000    0.061     0  22:06           0        1.13       0.650
  J6                   JUNCTION     0.000    0.028     0  22:20           0       0.882       0.473
  J2                   JUNCTION     0.000    0.039     0  22:33           0        1.33       0.428
  J19                  JUNCTION     0.000    0.271     0  21:48           0           8       0.158
  J9                   JUNCTION     0.000    0.075     0  22:40           0        2.62       0.256
  J14                  JUNCTION     0.000    0.059     0  23:40           0        2.45       0.176
  J17                  JUNCTION     0.000    0.015     0  21:44           0       0.522       0.724
  J7                   JUNCTION     0.000    0.069     0  21:57           0       0.902       0.872
  J11                  JUNCTION     0.000    0.300     0  21:46           0        2.39       0.961
  J18                  JUNCTION     0.000    0.105     0  21:42           0        1.34       0.609
  Out_to_WWTP          OUTFALL      0.000    0.271     0  21:49           0        7.99       0.000
  T5                   STORAGE      0.000    0.149     0  21:42           0        2.53      24.376
  T4                   STORAGE      0.000    0.142     0  22:07           0        2.18      20.092
  T6                   STORAGE      0.000    0.341     0  21:58           0        5.01      20.325
  T3                   STORAGE      0.000    0.509     0  21:54           0        6.35      27.030
  T2                   STORAGE      0.000    0.316     0  22:07           0        3.75      33.584
  T1                   STORAGE      0.000    0.495     0  21:59           0        10.5       8.591
  
  
  **********************
  Node Surcharge Summary
  **********************
  
  No nodes were surcharged.
  
  
  *********************
  Node Flooding Summary
  *********************
  
  Flooding refers to all water that overflows a node, whether it ponds or not.
  --------------------------------------------------------------------------
                                                             Total   Maximum
                                 Maximum   Time of Max       Flood    Ponded
                        Hours       Rate    Occurrence      Volume     Depth
  Node                 Flooded       CMS   days hr:min    10^6 ltr    Meters
  --------------------------------------------------------------------------
  T5                      1.11     0.076      0  23:17       0.204     0.000
  T4                      1.57     0.124      0  22:07       0.431     0.000
  T6                      1.36     0.280      0  22:22       0.939     0.000
  T2                      1.93     0.301      0  22:07       1.289     0.000
  T1                      1.87     0.225      0  21:59       0.976     0.000
  
  
  **********************
  Storage Volume Summary
  **********************
  
  --------------------------------------------------------------------------------------------------
                         Average     Avg  Evap Exfil       Maximum     Max    Time of Max    Maximum
                          Volume    Pcnt  Pcnt  Pcnt        Volume    Pcnt     Occurrence    Outflow
  Storage Unit           1000 m3    Full  Loss  Loss       1000 m3    Full    days hr:min        CMS
  --------------------------------------------------------------------------------------------------
  T5                       0.109      22     0     0         0.500     100       0  22:33      0.039
  T4                       0.106      21     0     0         0.500     100       0  22:05      0.028
  T6                       0.154      26     0     0         0.600     100       0  22:18      0.075
  T3                       0.729      28     0     0         2.547      98       0  23:40      0.098
  T2                       0.235      23     0     0         1.000     100       0  21:44      0.015
  T1                       0.137      20     0     0         0.700     100       0  21:48      0.271
  
  
  ***********************
  Outfall Loading Summary
  ***********************
  
  -----------------------------------------------------------
                         Flow       Avg       Max       Total
                         Freq      Flow      Flow      Volume
  Outfall Node           Pcnt       CMS       CMS    10^6 ltr
  -----------------------------------------------------------
  Out_to_WWTP           99.47     0.094     0.271       7.987
  -----------------------------------------------------------
  System                99.47     0.094     0.271       7.987
  
  
  ********************
  Link Flow Summary
  ********************
  
  -----------------------------------------------------------------------------
                                 Maximum  Time of Max   Maximum    Max/    Max/
                                  |Flow|   Occurrence   |Veloc|    Full    Full
  Link                 Type          CMS  days hr:min     m/sec    Flow   Depth
  -----------------------------------------------------------------------------
  C1                   CONDUIT     0.039     0  23:18      1.06    0.01    0.10
  C6                   CONDUIT     0.058     0  22:09      1.25    0.92    0.63
  C2                   CONDUIT     0.028     0  23:06      1.02    0.03    0.16
  C9                   CONDUIT     0.064     0  21:59      1.04    0.22    0.35
  C16                  CONDUIT     0.267     0  21:53      1.47    0.03    0.11
  C3                   CONDUIT     0.059     0  23:40      1.28    0.02    0.11
  C19                  CONDUIT     0.015     0  23:03      0.30    0.01    0.14
  C11                  CONDUIT     0.127     0  23:40      1.21    0.01    0.09
  C20                  CONDUIT     0.312     0  21:42      2.13    0.01    0.09
  C22                  CONDUIT     0.099     0  21:48      1.22    0.04    0.22
  C12                  CONDUIT     0.075     0  23:00      0.93    0.01    0.24
  C17                  CONDUIT     0.460     0  21:52      2.44    0.02    0.25
  C10                  CONDUIT     0.341     0  21:58      1.11    0.04    0.56
  C13                  CONDUIT     0.509     0  21:54      1.08    0.03    0.72
  C18                  CONDUIT     0.316     0  22:07      1.02    0.01    0.54
  C23                  CONDUIT     0.495     0  21:59      0.94    0.05    0.58
  C4                   CONDUIT     0.149     0  21:42      1.17    0.04    0.56
  C7                   CONDUIT     0.142     0  22:07      0.84    0.03    0.56
  C14                  CONDUIT     0.271     0  21:49      2.08    0.02    0.09
  C5                   CONDUIT     0.061     0  22:06      1.26    1.05    0.91
  C8                   CONDUIT     0.069     0  21:57      1.32    0.86    0.62
  C15                  CONDUIT     0.300     0  21:46      2.73    0.95    0.65
  C21                  CONDUIT     0.105     0  21:42      1.66    0.60    0.43
  V4                   ORIFICE     0.028     0  22:20                      0.35
  V5                   ORIFICE     0.039     0  22:33                      1.00
  V1                   ORIFICE     0.271     0  21:48                      1.00
  V6                   ORIFICE     0.075     0  22:40                      0.43
  V3                   ORIFICE     0.059     0  23:40                      0.32
  V2                   ORIFICE     0.015     0  21:44                      0.11
  
  
  ***************************
  Flow Classification Summary
  ***************************
  
  -------------------------------------------------------------------------------------
                      Adjusted    ---------- Fraction of Time in Flow Class ---------- 
                       /Actual         Up    Down  Sub   Sup   Up    Down  Norm  Inlet 
  Conduit               Length    Dry  Dry   Dry   Crit  Crit  Crit  Crit  Ltd   Ctrl  
  -------------------------------------------------------------------------------------
  C1                      1.00   0.00  0.00  0.00  0.10  0.90  0.00  0.00  0.97  0.00
  C6                      1.00   0.00  0.00  0.00  0.01  0.99  0.00  0.00  0.00  0.00
  C2                      1.00   0.00  0.00  0.00  0.33  0.67  0.00  0.00  0.99  0.00
  C9                      1.00   0.00  0.00  0.00  1.00  0.00  0.00  0.00  1.00  0.00
  C16                     1.00   0.00  0.00  0.00  0.83  0.17  0.00  0.00  0.68  0.00
  C3                      1.00   0.00  0.00  0.00  0.02  0.98  0.00  0.00  0.71  0.00
  C19                     1.00   0.00  0.00  0.00  1.00  0.00  0.00  0.00  1.00  0.00
  C11                     1.00   0.00  0.00  0.00  0.18  0.82  0.00  0.00  1.00  0.00
  C20                     1.00   0.00  0.00  0.00  0.68  0.32  0.00  0.00  0.99  0.00
  C22                     1.00   0.00  0.00  0.00  0.90  0.10  0.00  0.00  1.00  0.00
  C12                     1.00   0.00  0.00  0.00  0.36  0.64  0.00  0.00  0.94  0.00
  C17                     1.00   0.00  0.00  0.00  0.34  0.66  0.00  0.00  0.99  0.00
  C10                     1.00   0.00  0.00  0.00  0.96  0.04  0.00  0.00  0.98  0.00
  C13                     1.00   0.00  0.00  0.00  0.93  0.07  0.00  0.00  0.89  0.00
  C18                     1.00   0.00  0.00  0.00  0.96  0.04  0.00  0.00  0.98  0.00
  C23                     1.00   0.00  0.00  0.00  0.83  0.17  0.00  0.00  0.97  0.00
  C4                      1.00   0.00  0.00  0.00  0.94  0.06  0.00  0.00  0.98  0.00
  C7                      1.00   0.00  0.00  0.00  0.85  0.15  0.00  0.00  0.97  0.00
  C14                     1.00   0.00  0.00  0.00  0.00  1.00  0.00  0.00  0.65  0.00
  C5                      1.00   0.00  0.00  0.00  0.94  0.06  0.00  0.00  0.98  0.00
  C8                      1.00   0.00  0.00  0.00  0.08  0.92  0.00  0.00  0.00  0.00
  C15                     1.00   0.00  0.00  0.00  0.02  0.98  0.00  0.00  0.03  0.00
  C21                     1.00   0.00  0.00  0.00  0.00  1.00  0.00  0.00  0.00  0.00
  
  
  *************************
  Conduit Surcharge Summary
  *************************
  
  ----------------------------------------------------------------------------
                                                           Hours        Hours 
                         --------- Hours Full --------   Above Full   Capacity
  Conduit                Both Ends  Upstream  Dnstream   Normal Flow   Limited
  ----------------------------------------------------------------------------
  C10                         0.01      0.01      3.33      0.01         0.01
  C13                         0.01      0.01      4.23      0.01         0.01
  C18                         0.01      0.01      3.57      0.01         0.01
  C23                         0.01      0.01      3.53      0.01         0.01
  C4                          0.01      0.01      7.38      0.01         0.01
  C7                          0.01      0.01      6.46      0.01         0.01
  C5                          0.01      0.01      0.01      0.08         0.01
  

  Analysis begun on:  Mon Sep 20 23:13:17 2021
  Analysis ended on:  Mon Sep 20 23:13:17 2021
  Total elapsed time: < 1 sec