
  EPA STORM WATER MANAGEMENT MODEL - VERSION 5.1 (Build 5.3.0.dev0)
  --------------------------------------------------------------

  WARNING 09: time series interval greater than recording interval for Rain Gage RG1
  WARNING 09: time series interval greater than recording interval for Rain Gage RG2
  WARNING 09: time series interval greater than recording interval for Rain Gage RG3
  WARNING 09: time series interval greater than recording interval for Rain Gage RG4
  
  *********************************************************
  NOTE: The summary statistics displayed in this report are
  based on results found at every computational time step,  
  not just on results from each reporting time step.
  *********************************************************
  
  ****************
  Analysis Options
  ****************
  Flow Units ............... CMS
  Process Models:
    Rainfall/Runoff ........ YES
    RDII ................... NO
    Snowmelt ............... NO
    Groundwater ............ NO
    Flow Routing ........... YES
    Ponding Allowed ........ YES
    Water Quality .......... NO
  Infiltration Method ...... HORTON
  Flow Routing Method ...... DYNWAVE
  Surcharge Method ......... EXTRAN
  Starting Date ............ 08/28/2015 00:00:00
  Ending Date .............. 08/28/2015 23:40:00
  Antecedent Dry Days ...... 0.0
  Report Time Step ......... 00:01:00
  Wet Time Step ............ 00:01:00
  Dry Time Step ............ 00:01:00
  Routing Time Step ........ 5.00 sec
  Variable Time Step ....... YES
  Maximum Trials ........... 8
  Number of Threads ........ 1
  Head Tolerance ........... 0.001500 m
  
  
  **************************        Volume         Depth
  Runoff Quantity Continuity     hectare-m            mm
  **************************     ---------       -------
  Total Precipitation ......         2.666        14.794
  Evaporation Loss .........         0.000         0.000
  Infiltration Loss ........         0.000         0.000
  Surface Runoff ...........         2.644        14.671
  Final Storage ............         0.024         0.135
  Continuity Error (%) .....        -0.085
  
  
  **************************        Volume        Volume
  Flow Routing Continuity        hectare-m      10^6 ltr
  **************************     ---------     ---------
  Dry Weather Inflow .......         0.758         7.576
  Wet Weather Inflow .......         2.644        26.438
  Groundwater Inflow .......         0.000         0.000
  RDII Inflow ..............         0.000         0.000
  External Inflow ..........         0.000         0.000
  External Outflow .........         1.460        14.605
  Flooding Loss ............         0.990         9.900
  Evaporation Loss .........         0.000         0.000
  Exfiltration Loss ........         0.000         0.000
  Initial Stored Volume ....         0.000         0.000
  Final Stored Volume ......         0.756         7.560
  Continuity Error (%) .....         5.730
  
  
  *************************
  Highest Continuity Errors
  *************************
  Node T2 (20.50%)
  Node T3 (13.25%)
  Node T4 (8.81%)
  Node T5 (8.79%)
  Node J12 (7.31%)
  
  
  ***************************
  Time-Step Critical Elements
  ***************************
  None
  
  
  ********************************
  Highest Flow Instability Indexes
  ********************************
  All links are stable.
  
  
  *************************
  Routing Time Step Summary
  *************************
  Minimum Time Step           :     4.50 sec
  Average Time Step           :     5.00 sec
  Maximum Time Step           :     5.00 sec
  Percent in Steady State     :     0.00
  Average Iterations per Step :     2.04
  Percent Not Converging      :     0.00
  
  
  ***************************
  Subcatchment Runoff Summary
  ***************************
  
  ------------------------------------------------------------------------------------------------------------------------------
                            Total      Total      Total      Total     Imperv       Perv      Total       Total     Peak  Runoff
                           Precip      Runon       Evap      Infil     Runoff     Runoff     Runoff      Runoff   Runoff   Coeff
  Subcatchment                 mm         mm         mm         mm         mm         mm         mm    10^6 ltr      CMS
  ------------------------------------------------------------------------------------------------------------------------------
  SC01                      13.98       0.00       0.00       0.00      13.91       0.00      13.91        4.59     0.61   0.995
  SC02                      15.88       0.00       0.00       0.00      15.77       0.00      15.77        3.59     0.35   0.993
  SC03                      12.47       0.00       0.00       0.00      12.42       0.00      12.42        2.23     0.26   0.996
  SC04                      15.88       0.00       0.00       0.00      15.65       0.00      15.65        1.08     0.08   0.986
  SC05                      13.98       0.00       0.00       0.00      13.90       0.00      13.90        2.17     0.27   0.995
  SC06                      17.80       0.00       0.00       0.00      17.57       0.00      17.57        5.72     0.80   0.987
  SC07                      15.88       0.00       0.00       0.00      15.65       0.00      15.65        0.74     0.05   0.986
  SC08                      12.47       0.00       0.00       0.00      12.36       0.00      12.36        3.46     0.33   0.991
  SC09                      17.80       0.00       0.00       0.00      17.68       0.00      17.68        1.22     0.26   0.993
  SC010                     13.98       0.00       0.00       0.00      13.88       0.00      13.88        1.63     0.16   0.993
  
  
  ******************
  Node Depth Summary
  ******************
  
  ---------------------------------------------------------------------------------
                                 Average  Maximum  Maximum  Time of Max    Reported
                                   Depth    Depth      HGL   Occurrence   Max Depth
  Node                 Type       Meters   Meters   Meters  days hr:min      Meters
  ---------------------------------------------------------------------------------
  J1                   JUNCTION     0.06     0.17    34.17     0  18:32        0.17
  J3                   JUNCTION     0.09     0.13    18.13     0  22:42        0.13
  CSO7                 JUNCTION     0.08     0.22    34.22     0  07:36        0.21
  J5                   JUNCTION     0.05     0.12    32.12     0  07:37        0.12
  CSO9                 JUNCTION     0.12     2.00    42.00     0  18:21        2.00
  J8                   JUNCTION     0.09     0.30    36.30     0  18:28        0.30
  CSO8                 JUNCTION     0.09     0.43    32.43     0  07:31        0.43
  J10                  JUNCTION     0.07     0.22    29.22     0  07:32        0.22
  J13                  JUNCTION     0.05     0.16    29.16     0  07:32        0.16
  J15                  JUNCTION     0.14     0.28    15.28     0  18:36        0.28
  J16                  JUNCTION     0.06     0.18    30.18     0  18:32        0.18
  CSO10                JUNCTION     0.10     0.36    30.36     0  18:32        0.36
  J12                  JUNCTION     0.63     1.02    27.02     0  10:24        1.02
  J4                   JUNCTION     0.10     0.24    33.24     0  07:39        0.24
  J6                   JUNCTION     0.06     0.07    25.07     0  09:45        0.07
  J2                   JUNCTION     0.06     0.08    25.08     0  10:01        0.08
  J19                  JUNCTION     0.13     0.17     8.17     0  08:37        0.17
  J9                   JUNCTION     0.09     0.11    29.11     0  11:56        0.11
  J14                  JUNCTION     0.08     0.15    20.15     0  22:40        0.15
  J17                  JUNCTION     0.04     0.05    20.05     0  10:04        0.05
  J7                   JUNCTION     0.07     0.23    39.23     0  18:36        0.23
  J11                  JUNCTION     0.07     0.24    31.24     0  07:33        0.24
  J18                  JUNCTION     0.05     0.14    29.14     0  18:34        0.14
  Out_to_WWTP          OUTFALL      0.13     0.17     6.17     0  08:35        0.17
  T5                   STORAGE      3.02     5.00    32.00     0  09:16        5.00
  T4                   STORAGE      3.05     5.00    32.00     0  09:03        5.00
  T6                   STORAGE      3.21     5.00    36.00     0  08:07        5.00
  T3                   STORAGE      3.35     5.00    27.00     0  10:18        5.00
  T2                   STORAGE      3.53     5.00    26.00     0  08:46        5.00
  T1                   STORAGE      2.53     5.00    15.00     0  08:35        5.00
  
  
  *******************
  Node Inflow Summary
  *******************
  
  -------------------------------------------------------------------------------------------------
                                  Maximum  Maximum                  Lateral       Total        Flow
                                  Lateral    Total  Time of Max      Inflow      Inflow     Balance
                                   Inflow   Inflow   Occurrence      Volume      Volume       Error
  Node                 Type           CMS      CMS  days hr:min    10^6 ltr    10^6 ltr     Percent
  -------------------------------------------------------------------------------------------------
  J1                   JUNCTION     0.281    0.281     0  18:31        3.26        3.26      -0.041
  J3                   JUNCTION     0.000    0.177     0  22:40           0         7.7       0.346
  CSO7                 JUNCTION     0.062    0.062     0  07:36        1.31        1.31       0.016
  J5                   JUNCTION     0.081    0.134     0  07:36        1.33        2.64      -0.003
  CSO9                 JUNCTION     0.268    0.268     0  18:26         1.6         1.6      -0.017
  J8                   JUNCTION     0.820    0.914     0  18:26        7.55        9.11      -0.000
  CSO8                 JUNCTION     0.343    0.343     0  07:31        3.91        3.91      -0.000
  J10                  JUNCTION     0.269    0.544     0  07:31        2.99        6.89      -0.090
  J13                  JUNCTION     0.361    0.361     0  07:31         4.5         4.5      -0.089
  J15                  JUNCTION     0.000    0.807     0  18:32           0        16.2       0.358
  J16                  JUNCTION     0.624    0.624     0  18:31        5.67        5.67      -0.052
  CSO10                JUNCTION     0.167    0.167     0  18:31         1.9         1.9       0.000
  J12                  JUNCTION     0.000    0.566     0  07:33           0        11.2       7.892
  J4                   JUNCTION     0.000    0.060     0  07:36           0        1.31       0.105
  J6                   JUNCTION     0.000    0.028     0  09:04           0        1.65       0.209
  J2                   JUNCTION     0.000    0.039     0  09:16           0        2.35       0.193
  J19                  JUNCTION     0.000    0.271     0  08:35           0        14.6       0.061
  J9                   JUNCTION     0.000    0.075     0  08:20           0        4.34       0.329
  J14                  JUNCTION     0.000    0.123     0  22:40           0        3.71       0.119
  J17                  JUNCTION     0.000    0.015     0  08:46           0       0.978       0.386
  J7                   JUNCTION     0.000    0.127     0  18:36           0        1.56       0.077
  J11                  JUNCTION     0.000    0.331     0  07:32           0        3.91       0.048
  J18                  JUNCTION     0.000    0.156     0  18:32           0         1.9      -0.009
  Out_to_WWTP          OUTFALL      0.000    0.271     0  08:37           0        14.6       0.000
  T5                   STORAGE      0.000    0.255     0  18:32           0        3.26       9.637
  T4                   STORAGE      0.000    0.131     0  07:37           0        2.64       9.666
  T6                   STORAGE      0.000    0.835     0  18:28           0        9.11       6.761
  T3                   STORAGE      0.000    0.550     0  07:34           0        10.4      15.276
  T2                   STORAGE      0.000    0.330     0  07:32           0         4.5      25.786
  T1                   STORAGE      0.000    0.670     0  18:36           0        16.2       2.133
  
  
  **********************
  Node Surcharge Summary
  **********************
  
  Surcharging occurs when water rises above the top of the highest conduit.
  ---------------------------------------------------------------------
                                               Max. Height   Min. Depth
                                   Hours       Above Crown    Below Rim
  Node                 Type      Surcharged         Meters       Meters
  ---------------------------------------------------------------------
  CSO9                 JUNCTION        0.50          1.682        0.000
  
  
  *********************
  Node Flooding Summary
  *********************
  
  Flooding refers to all water that overflows a node, whether it ponds or not.
  --------------------------------------------------------------------------
                                                             Total   Maximum
                                 Maximum   Time of Max       Flood    Ponded
                        Hours       Rate    Occurrence      Volume     Depth
  Node                 Flooded       CMS   days hr:min    10^6 ltr    Meters
  --------------------------------------------------------------------------
  CSO9                    0.23     0.145      0  18:26       0.041     0.000
  T5                      2.17     0.066      0  09:17       0.346     0.000
  T4                      3.27     0.070      0  09:03       0.439     0.000
  T6                      6.37     0.604      0  18:37       3.794     0.000
  T3                     11.84     0.465      0  10:27       2.708     0.000
  T2                      9.49     0.195      0  08:46       1.627     0.000
  T1                      2.58     0.131      0  08:43       0.944     0.000
  
  
  **********************
  Storage Volume Summary
  **********************
  
  --------------------------------------------------------------------------------------------------
                         Average     Avg  Evap Exfil       Maximum     Max    Time of Max    Maximum
                          Volume    Pcnt  Pcnt  Pcnt        Volume    Pcnt     Occurrence    Outflow
  Storage Unit           1000 m3    Full  Loss  Loss       1000 m3    Full    days hr:min        CMS
  --------------------------------------------------------------------------------------------------
  T5                       0.302      60     0     0         0.500     100       0  09:16      0.039
  T4                       0.305      61     0     0         0.500     100       0  09:03      0.028
  T6                       0.386      64     0     0         0.600     100       0  08:07      0.075
  T3                       1.741      67     0     0         2.600     100       0  10:18      0.123
  T2                       0.706      71     0     0         1.000     100       0  08:46      0.015
  T1                       0.354      51     0     0         0.700     100       0  08:35      0.271
  
  
  ***********************
  Outfall Loading Summary
  ***********************
  
  -----------------------------------------------------------
                         Flow       Avg       Max       Total
                         Freq      Flow      Flow      Volume
  Outfall Node           Pcnt       CMS       CMS    10^6 ltr
  -----------------------------------------------------------
  Out_to_WWTP           99.43     0.172     0.271      14.605
  -----------------------------------------------------------
  System                99.43     0.172     0.271      14.605
  
  
  ********************
  Link Flow Summary
  ********************
  
  -----------------------------------------------------------------------------
                                 Maximum  Time of Max   Maximum    Max/    Max/
                                  |Flow|   Occurrence   |Veloc|    Full    Full
  Link                 Type          CMS  days hr:min     m/sec    Flow   Depth
  -----------------------------------------------------------------------------
  C1                   CONDUIT     0.039     0  10:01      1.04    0.01    0.10
  C6                   CONDUIT     0.056     0  07:39      1.26    0.89    0.61
  C2                   CONDUIT     0.028     0  09:45      1.02    0.03    0.16
  C9                   CONDUIT     0.127     0  18:36      1.31    0.43    0.52
  C16                  CONDUIT     0.309     0  07:33      1.55    0.03    0.11
  C3                   CONDUIT     0.121     0  22:40      1.83    0.05    0.14
  C19                  CONDUIT     0.015     0  10:04      0.43    0.01    0.16
  C11                  CONDUIT     0.169     0  22:42      1.82    0.01    0.10
  C20                  CONDUIT     0.565     0  18:32      3.19    0.02    0.11
  C22                  CONDUIT     0.141     0  18:34      1.42    0.06    0.26
  C12                  CONDUIT     0.075     0  11:56      0.79    0.01    0.28
  C17                  CONDUIT     0.518     0  07:33      2.54    0.03    0.30
  C10                  CONDUIT     0.835     0  18:28      0.94    0.09    0.60
  C13                  CONDUIT     0.550     0  07:34      0.85    0.03    0.76
  C18                  CONDUIT     0.330     0  07:32      1.01    0.01    0.54
  C23                  CONDUIT     0.670     0  18:36      1.04    0.07    0.59
  C4                   CONDUIT     0.255     0  18:32      1.13    0.06    0.58
  C7                   CONDUIT     0.131     0  07:37      0.83    0.03    0.56
  C14                  CONDUIT     0.271     0  08:37      2.08    0.02    0.09
  C5                   CONDUIT     0.060     0  07:36      1.29    1.02    0.88
  C8                   CONDUIT     0.127     0  18:36      2.11    1.60    0.86
  C15                  CONDUIT     0.331     0  07:32      2.74    1.05    0.74
  C21                  CONDUIT     0.156     0  18:32      1.81    0.89    0.55
  V4                   ORIFICE     0.028     0  09:04                      0.35
  V5                   ORIFICE     0.039     0  09:16                      1.00
  V1                   ORIFICE     0.271     0  08:35                      1.00
  V6                   ORIFICE     0.075     0  08:20                      0.43
  V3                   ORIFICE     0.123     0  22:40                      0.65
  V2                   ORIFICE     0.015     0  08:46                      0.11
  
  
  ***************************
  Flow Classification Summary
  ***************************
  
  -------------------------------------------------------------------------------------
                      Adjusted    ---------- Fraction of Time in Flow Class ---------- 
                       /Actual         Up    Down  Sub   Sup   Up    Down  Norm  Inlet 
  Conduit               Length    Dry  Dry   Dry   Crit  Crit  Crit  Crit  Ltd   Ctrl  
  -------------------------------------------------------------------------------------
  C1                      1.00   0.00  0.00  0.00  0.04  0.96  0.00  0.00  0.96  0.00
  C6                      1.00   0.00  0.00  0.00  0.01  0.99  0.00  0.00  0.00  0.00
  C2                      1.00   0.00  0.00  0.00  0.09  0.91  0.00  0.00  0.97  0.00
  C9                      1.00   0.00  0.00  0.00  1.00  0.00  0.00  0.00  1.00  0.00
  C16                     1.00   0.00  0.13  0.00  0.54  0.32  0.00  0.00  0.42  0.00
  C3                      1.00   0.00  0.00  0.00  0.03  0.96  0.00  0.00  0.98  0.00
  C19                     1.00   0.00  0.00  0.00  1.00  0.00  0.00  0.00  1.00  0.00
  C11                     1.00   0.00  0.00  0.00  0.29  0.71  0.00  0.00  1.00  0.00
  C20                     1.00   0.00  0.00  0.00  0.59  0.41  0.00  0.00  0.99  0.00
  C22                     1.00   0.00  0.00  0.00  0.91  0.09  0.00  0.00  1.00  0.00
  C12                     1.00   0.00  0.00  0.00  0.91  0.09  0.00  0.00  0.98  0.00
  C17                     1.00   0.00  0.00  0.00  0.74  0.26  0.00  0.00  0.99  0.00
  C10                     1.00   0.00  0.00  0.00  0.84  0.16  0.00  0.00  0.98  0.00
  C13                     1.00   0.00  0.00  0.00  0.88  0.12  0.00  0.00  0.31  0.00
  C18                     1.00   0.00  0.00  0.00  0.95  0.05  0.00  0.00  0.98  0.00
  C23                     1.00   0.00  0.00  0.00  0.85  0.15  0.00  0.00  0.96  0.00
  C4                      1.00   0.00  0.00  0.00  0.86  0.14  0.00  0.00  0.98  0.00
  C7                      1.00   0.00  0.00  0.00  0.85  0.15  0.00  0.00  0.97  0.00
  C14                     1.00   0.00  0.00  0.00  0.00  1.00  0.00  0.00  0.38  0.00
  C5                      1.00   0.00  0.00  0.00  0.87  0.13  0.00  0.00  0.99  0.00
  C8                      1.00   0.00  0.00  0.00  0.22  0.78  0.00  0.00  0.00  0.00
  C15                     1.00   0.13  0.00  0.00  0.01  0.85  0.00  0.00  0.01  0.00
  C21                     1.00   0.00  0.00  0.00  0.00  1.00  0.00  0.00  0.00  0.00
  
  
  *************************
  Conduit Surcharge Summary
  *************************
  
  ----------------------------------------------------------------------------
                                                           Hours        Hours 
                         --------- Hours Full --------   Above Full   Capacity
  Conduit                Both Ends  Upstream  Dnstream   Normal Flow   Limited
  ----------------------------------------------------------------------------
  C10                         0.01      0.01     16.72      0.01         0.01
  C13                         0.01      0.01     16.05      0.01         0.01
  C18                         0.01      0.01     16.46      0.01         0.01
  C23                         0.01      0.01     16.90      0.01         0.01
  C4                          0.01      0.01     18.46      0.01         0.01
  C7                          0.01      0.01     17.64      0.01         0.01
  C5                          0.01      0.01      0.01      0.03         0.01
  C8                          0.01      0.50      0.01      0.51         0.01
  C15                         0.01      0.01      0.01      0.05         0.01
  

  Analysis begun on:  Mon Sep 20 23:18:59 2021
  Analysis ended on:  Mon Sep 20 23:18:59 2021
  Total elapsed time: < 1 sec