
  EPA STORM WATER MANAGEMENT MODEL - VERSION 5.1 (Build 5.3.0.dev0)
  --------------------------------------------------------------

  WARNING 09: time series interval greater than recording interval for Rain Gage RG1
  WARNING 09: time series interval greater than recording interval for Rain Gage RG2
  WARNING 09: time series interval greater than recording interval for Rain Gage RG3
  WARNING 09: time series interval greater than recording interval for Rain Gage RG4
  
  *********************************************************
  NOTE: The summary statistics displayed in this report are
  based on results found at every computational time step,  
  not just on results from each reporting time step.
  *********************************************************
  
  ****************
  Analysis Options
  ****************
  Flow Units ............... CMS
  Process Models:
    Rainfall/Runoff ........ YES
    RDII ................... NO
    Snowmelt ............... NO
    Groundwater ............ NO
    Flow Routing ........... YES
    Ponding Allowed ........ YES
    Water Quality .......... NO
  Infiltration Method ...... HORTON
  Flow Routing Method ...... DYNWAVE
  Surcharge Method ......... EXTRAN
  Starting Date ............ 08/28/2015 00:00:00
  Ending Date .............. 08/28/2015 23:40:00
  Antecedent Dry Days ...... 0.0
  Report Time Step ......... 00:01:00
  Wet Time Step ............ 00:01:00
  Dry Time Step ............ 00:01:00
  Routing Time Step ........ 5.00 sec
  Variable Time Step ....... YES
  Maximum Trials ........... 8
  Number of Threads ........ 1
  Head Tolerance ........... 0.001500 m
  
  
  **************************        Volume         Depth
  Runoff Quantity Continuity     hectare-m            mm
  **************************     ---------       -------
  Total Precipitation ......         1.903        10.558
  Evaporation Loss .........         0.000         0.000
  Infiltration Loss ........         0.000         0.000
  Surface Runoff ...........         1.886        10.469
  Final Storage ............         0.020         0.109
  Continuity Error (%) .....        -0.182
  
  
  **************************        Volume        Volume
  Flow Routing Continuity        hectare-m      10^6 ltr
  **************************     ---------     ---------
  Dry Weather Inflow .......         0.758         7.576
  Wet Weather Inflow .......         1.886        18.865
  Groundwater Inflow .......         0.000         0.000
  RDII Inflow ..............         0.000         0.000
  External Inflow ..........         0.000         0.000
  External Outflow .........         1.068        10.678
  Flooding Loss ............         0.649         6.487
  Evaporation Loss .........         0.000         0.000
  Exfiltration Loss ........         0.000         0.000
  Initial Stored Volume ....         0.000         0.000
  Final Stored Volume ......         0.746         7.460
  Continuity Error (%) .....         6.868
  
  
  *************************
  Highest Continuity Errors
  *************************
  Node T2 (28.13%)
  Node T3 (15.63%)
  Node T4 (13.25%)
  Node T5 (9.90%)
  Node J12 (8.63%)
  
  
  ***************************
  Time-Step Critical Elements
  ***************************
  None
  
  
  ********************************
  Highest Flow Instability Indexes
  ********************************
  All links are stable.
  
  
  *************************
  Routing Time Step Summary
  *************************
  Minimum Time Step           :     4.50 sec
  Average Time Step           :     5.00 sec
  Maximum Time Step           :     5.00 sec
  Percent in Steady State     :     0.00
  Average Iterations per Step :     2.03
  Percent Not Converging      :     0.16
  
  
  ***************************
  Subcatchment Runoff Summary
  ***************************
  
  ------------------------------------------------------------------------------------------------------------------------------
                            Total      Total      Total      Total     Imperv       Perv      Total       Total     Peak  Runoff
                           Precip      Runon       Evap      Infil     Runoff     Runoff     Runoff      Runoff   Runoff   Coeff
  Subcatchment                 mm         mm         mm         mm         mm         mm         mm    10^6 ltr      CMS
  ------------------------------------------------------------------------------------------------------------------------------
  SC01                      11.07       0.00       0.00       0.00      11.02       0.00      11.02        3.64     1.68   0.995
  SC02                      10.13       0.00       0.00       0.00      10.07       0.00      10.07        2.29     0.81   0.994
  SC03                      11.08       0.00       0.00       0.00      11.06       0.00      11.06        1.99     1.34   0.998
  SC04                      10.13       0.00       0.00       0.00       9.99       0.00       9.99        0.69     0.16   0.986
  SC05                      11.07       0.00       0.00       0.00      11.01       0.00      11.01        1.72     0.73   0.995
  SC06                       9.54       0.00       0.00       0.00       9.35       0.00       9.35        3.04     0.26   0.981
  SC07                      10.13       0.00       0.00       0.00       9.99       0.00       9.99        0.47     0.11   0.986
  SC08                      11.08       0.00       0.00       0.00      11.00       0.00      11.00        3.08     1.17   0.993
  SC09                       9.54       0.00       0.00       0.00       9.43       0.00       9.43        0.65     0.06   0.988
  SC010                     11.07       0.00       0.00       0.00      10.99       0.00      10.99        1.29     0.45   0.993
  
  
  ******************
  Node Depth Summary
  ******************
  
  ---------------------------------------------------------------------------------
                                 Average  Maximum  Maximum  Time of Max    Reported
                                   Depth    Depth      HGL   Occurrence   Max Depth
  Node                 Type       Meters   Meters   Meters  days hr:min      Meters
  ---------------------------------------------------------------------------------
  J1                   JUNCTION     0.05     0.27    34.27     0  14:36        0.27
  J3                   JUNCTION     0.08     0.11    18.11     0  15:40        0.11
  CSO7                 JUNCTION     0.09     1.20    35.20     0  14:36        1.20
  J5                   JUNCTION     0.05     0.16    32.16     0  14:42        0.16
  CSO9                 JUNCTION     0.08     0.24    40.24     0  13:11        0.24
  J8                   JUNCTION     0.08     0.20    36.20     0  13:22        0.19
  CSO8                 JUNCTION     0.10     2.00    34.00     0  14:25        2.00
  J10                  JUNCTION     0.06     0.36    29.36     0  14:31        0.36
  J13                  JUNCTION     0.04     0.23    29.23     0  14:41        0.23
  J15                  JUNCTION     0.12     0.40    15.40     0  14:42        0.40
  J16                  JUNCTION     0.05     0.31    30.31     0  14:36        0.31
  CSO10                JUNCTION     0.09     1.00    31.00     0  14:35        1.00
  J12                  JUNCTION     0.43     1.02    27.02     0  15:10        1.02
  J4                   JUNCTION     0.09     1.43    34.43     0  14:40        0.75
  J6                   JUNCTION     0.05     0.07    25.07     0  15:44        0.07
  J2                   JUNCTION     0.05     0.08    25.08     0  15:28        0.08
  J19                  JUNCTION     0.11     0.17     8.17     0  14:38        0.17
  J9                   JUNCTION     0.08     0.11    29.11     0  14:50        0.11
  J14                  JUNCTION     0.07     0.10    20.10     0  16:17        0.10
  J17                  JUNCTION     0.04     0.05    20.05     0  19:37        0.05
  J7                   JUNCTION     0.06     0.16    39.16     0  13:18        0.16
  J11                  JUNCTION     0.06     0.30    31.30     0  14:44        0.30
  J18                  JUNCTION     0.04     0.16    29.16     0  14:53        0.16
  Out_to_WWTP          OUTFALL      0.11     0.17     6.17     0  15:39        0.17
  T5                   STORAGE      2.10     5.00    32.00     0  14:39        5.00
  T4                   STORAGE      2.16     5.00    32.00     0  15:01        5.00
  T6                   STORAGE      2.35     5.00    36.00     0  13:29        5.00
  T3                   STORAGE      2.30     5.00    27.00     0  15:04        5.00
  T2                   STORAGE      2.31     5.00    26.00     0  14:48        5.00
  T1                   STORAGE      1.73     5.00    15.00     0  14:37        5.00
  
  
  *******************
  Node Inflow Summary
  *******************
  
  -------------------------------------------------------------------------------------------------
                                  Maximum  Maximum                  Lateral       Total        Flow
                                  Lateral    Total  Time of Max      Inflow      Inflow     Balance
                                   Inflow   Inflow   Occurrence      Volume      Volume       Error
  Node                 Type           CMS      CMS  days hr:min    10^6 ltr    10^6 ltr     Percent
  -------------------------------------------------------------------------------------------------
  J1                   JUNCTION     0.751    0.751     0  14:36        2.81        2.81      -0.021
  J3                   JUNCTION     0.000    0.127     0  15:30           0        5.84       0.455
  CSO7                 JUNCTION     0.117    0.117     0  14:41        1.04        1.04       0.008
  J5                   JUNCTION     0.160    0.231     0  14:41       0.937        1.96       0.009
  CSO9                 JUNCTION     0.071    0.071     0  13:11        1.03        1.03       0.012
  J8                   JUNCTION     0.300    0.364     0  13:21        4.88        5.91       0.005
  CSO8                 JUNCTION     1.185    1.185     0  14:31        3.53        3.53      -0.013
  J10                  JUNCTION     1.357    1.568     0  14:31        2.74         5.9      -0.195
  J13                  JUNCTION     0.820    0.820     0  14:36         3.2         3.2      -0.085
  J15                  JUNCTION     0.000    1.840     0  14:37           0        12.7       0.469
  J16                  JUNCTION     1.699    1.699     0  14:36        4.71        4.71      -0.075
  CSO10                JUNCTION     0.456    0.456     0  14:36        1.56        1.56      -0.035
  J12                  JUNCTION     0.000    1.475     0  14:32           0        9.61       9.439
  J4                   JUNCTION     0.000    0.085     0  14:38           0        1.02       0.049
  J6                   JUNCTION     0.000    0.028     0  15:01           0        1.23       0.295
  J2                   JUNCTION     0.000    0.039     0  14:39           0        1.79       0.255
  J19                  JUNCTION     0.000    0.271     0  14:37           0        10.7       0.078
  J9                   JUNCTION     0.000    0.075     0  13:29           0        3.56       0.348
  J14                  JUNCTION     0.000    0.060     0  15:04           0        2.83       0.155
  J17                  JUNCTION     0.000    0.015     0  14:48           0       0.721       0.516
  J7                   JUNCTION     0.000    0.069     0  13:12           0        1.03       0.100
  J11                  JUNCTION     0.000    0.486     0  14:44           0        3.16       0.091
  J18                  JUNCTION     0.000    0.202     0  14:53           0        1.46       0.001
  Out_to_WWTP          OUTFALL      0.000    0.271     0  14:38           0        10.7       0.000
  T5                   STORAGE      0.000    0.666     0  14:37           0        2.81      10.989
  T4                   STORAGE      0.000    0.219     0  14:42           0        1.96      15.274
  T6                   STORAGE      0.000    0.352     0  13:22           0        5.91       9.085
  T3                   STORAGE      0.000    1.340     0  14:33           0        8.78      18.525
  T2                   STORAGE      0.000    0.743     0  14:41           0         3.2      39.139
  T1                   STORAGE      0.000    1.394     0  14:42           0        12.6       2.366
  
  
  **********************
  Node Surcharge Summary
  **********************
  
  Surcharging occurs when water rises above the top of the highest conduit.
  ---------------------------------------------------------------------
                                               Max. Height   Min. Depth
                                   Hours       Above Crown    Below Rim
  Node                 Type      Surcharged         Meters       Meters
  ---------------------------------------------------------------------
  CSO7                 JUNCTION        0.39          0.945        0.000
  CSO8                 JUNCTION        0.43          1.547        0.000
  CSO10                JUNCTION        0.35          0.560        0.000
  J4                   JUNCTION        0.35          1.135        0.565
  
  
  *********************
  Node Flooding Summary
  *********************
  
  Flooding refers to all water that overflows a node, whether it ponds or not.
  --------------------------------------------------------------------------
                                                             Total   Maximum
                                 Maximum   Time of Max       Flood    Ponded
                        Hours       Rate    Occurrence      Volume     Depth
  Node                 Flooded       CMS   days hr:min    10^6 ltr    Meters
  --------------------------------------------------------------------------
  CSO7                    0.29     0.046      0  14:41       0.019     0.000
  CSO8                    0.32     0.701      0  14:31       0.363     0.000
  CSO10                   0.30     0.264      0  14:36       0.102     0.000
  T5                      0.97     0.516      0  14:41       0.471     0.000
  T4                      1.07     0.098      0  15:01       0.118     0.000
  T6                      4.12     0.258      0  13:29       1.516     0.000
  T3                      7.33     0.595      0  15:04       1.827     0.000
  T2                      5.29     0.403      0  14:48       0.629     0.000
  T1                      0.90     1.123      0  14:43       1.441     0.000
  
  
  **********************
  Storage Volume Summary
  **********************
  
  --------------------------------------------------------------------------------------------------
                         Average     Avg  Evap Exfil       Maximum     Max    Time of Max    Maximum
                          Volume    Pcnt  Pcnt  Pcnt        Volume    Pcnt     Occurrence    Outflow
  Storage Unit           1000 m3    Full  Loss  Loss       1000 m3    Full    days hr:min        CMS
  --------------------------------------------------------------------------------------------------
  T5                       0.210      42     0     0         0.500     100       0  14:39      0.039
  T4                       0.216      43     0     0         0.500     100       0  15:01      0.028
  T6                       0.282      47     0     0         0.600     100       0  13:29      0.075
  T3                       1.197      46     0     0         2.600     100       0  15:04      0.470
  T2                       0.461      46     0     0         1.000     100       0  14:48      0.015
  T1                       0.242      35     0     0         0.700     100       0  14:37      0.271
  
  
  ***********************
  Outfall Loading Summary
  ***********************
  
  -----------------------------------------------------------
                         Flow       Avg       Max       Total
                         Freq      Flow      Flow      Volume
  Outfall Node           Pcnt       CMS       CMS    10^6 ltr
  -----------------------------------------------------------
  Out_to_WWTP           99.43     0.126     0.271      10.678
  -----------------------------------------------------------
  System                99.43     0.126     0.271      10.678
  
  
  ********************
  Link Flow Summary
  ********************
  
  -----------------------------------------------------------------------------
                                 Maximum  Time of Max   Maximum    Max/    Max/
                                  |Flow|   Occurrence   |Veloc|    Full    Full
  Link                 Type          CMS  days hr:min     m/sec    Flow   Depth
  -----------------------------------------------------------------------------
  C1                   CONDUIT     0.039     0  15:28      1.04    0.01    0.10
  C6                   CONDUIT     0.071     0  14:42      1.29    1.13    0.76
  C2                   CONDUIT     0.028     0  15:43      1.00    0.03    0.16
  C9                   CONDUIT     0.065     0  13:18      1.05    0.22    0.36
  C16                  CONDUIT     0.485     0  14:39      1.80    0.05    0.16
  C3                   CONDUIT     0.060     0  16:17      1.36    0.02    0.11
  C19                  CONDUIT     0.015     0  16:09      0.43    0.01    0.22
  C11                  CONDUIT     0.127     0  15:40      1.55    0.01    0.13
  C20                  CONDUIT     1.567     0  14:37      5.51    0.05    0.16
  C22                  CONDUIT     0.202     0  14:53      1.51    0.09    0.35
  C12                  CONDUIT     0.075     0  14:50      0.84    0.01    0.28
  C17                  CONDUIT     1.399     0  14:32      3.95    0.07    0.29
  C10                  CONDUIT     0.352     0  13:22      0.94    0.04    0.57
  C13                  CONDUIT     1.340     0  14:33      0.84    0.08    0.76
  C18                  CONDUIT     0.743     0  14:41      1.01    0.03    0.56
  C23                  CONDUIT     1.394     0  14:42      1.18    0.15    0.63
  C4                   CONDUIT     0.666     0  14:37      1.26    0.16    0.64
  C7                   CONDUIT     0.219     0  14:42      0.83    0.05    0.58
  C14                  CONDUIT     0.271     0  14:38      2.08    0.02    0.09
  C5                   CONDUIT     0.085     0  14:38      1.69    1.45    1.00
  C8                   CONDUIT     0.069     0  13:12      1.34    0.86    0.63
  C15                  CONDUIT     0.486     0  14:44      3.73    1.55    0.83
  C21                  CONDUIT     0.202     0  14:53      1.93    1.16    0.69
  V4                   ORIFICE     0.028     0  15:01                      0.35
  V5                   ORIFICE     0.039     0  14:39                      1.00
  V1                   ORIFICE     0.271     0  14:37                      1.00
  V6                   ORIFICE     0.075     0  13:29                      0.43
  V3                   ORIFICE     0.060     0  15:04                      0.32
  V2                   ORIFICE     0.015     0  14:48                      0.11
  
  
  ***************************
  Flow Classification Summary
  ***************************
  
  -------------------------------------------------------------------------------------
                      Adjusted    ---------- Fraction of Time in Flow Class ---------- 
                       /Actual         Up    Down  Sub   Sup   Up    Down  Norm  Inlet 
  Conduit               Length    Dry  Dry   Dry   Crit  Crit  Crit  Crit  Ltd   Ctrl  
  -------------------------------------------------------------------------------------
  C1                      1.00   0.00  0.00  0.00  0.04  0.96  0.00  0.00  0.96  0.00
  C6                      1.00   0.00  0.00  0.00  0.03  0.97  0.00  0.00  0.00  0.00
  C2                      1.00   0.00  0.00  0.00  0.16  0.84  0.00  0.00  0.97  0.00
  C9                      1.00   0.00  0.00  0.00  1.00  0.00  0.00  0.00  1.00  0.00
  C16                     1.00   0.00  0.25  0.00  0.48  0.26  0.00  0.00  0.44  0.00
  C3                      1.00   0.00  0.00  0.00  0.03  0.96  0.00  0.00  1.00  0.00
  C19                     1.00   0.00  0.00  0.00  1.00  0.00  0.00  0.00  1.00  0.00
  C11                     1.00   0.00  0.00  0.00  0.13  0.87  0.00  0.00  1.00  0.00
  C20                     1.00   0.00  0.00  0.00  0.64  0.36  0.00  0.00  0.99  0.00
  C22                     1.00   0.00  0.00  0.00  0.93  0.07  0.00  0.00  1.00  0.00
  C12                     1.00   0.00  0.00  0.00  0.65  0.35  0.00  0.00  0.98  0.00
  C17                     1.00   0.00  0.00  0.00  0.61  0.39  0.00  0.00  0.99  0.00
  C10                     1.00   0.00  0.00  0.00  0.84  0.16  0.00  0.00  0.98  0.00
  C13                     1.00   0.00  0.00  0.00  0.89  0.11  0.00  0.00  0.54  0.00
  C18                     1.00   0.00  0.00  0.00  0.96  0.04  0.00  0.00  0.98  0.00
  C23                     1.00   0.00  0.00  0.00  0.76  0.24  0.00  0.00  0.96  0.00
  C4                      1.00   0.00  0.00  0.00  0.82  0.18  0.00  0.00  0.98  0.00
  C7                      1.00   0.00  0.00  0.00  0.84  0.16  0.00  0.00  0.97  0.00
  C14                     1.00   0.00  0.00  0.00  0.00  1.00  0.00  0.00  0.41  0.00
  C5                      1.00   0.00  0.00  0.00  0.94  0.06  0.00  0.00  0.97  0.00
  C8                      1.00   0.00  0.00  0.00  0.22  0.78  0.00  0.00  0.00  0.00
  C15                     1.00   0.25  0.00  0.00  0.00  0.75  0.00  0.00  0.00  0.00
  C21                     1.00   0.00  0.00  0.00  0.00  1.00  0.00  0.00  0.00  0.00
  
  
  *************************
  Conduit Surcharge Summary
  *************************
  
  ----------------------------------------------------------------------------
                                                           Hours        Hours 
                         --------- Hours Full --------   Above Full   Capacity
  Conduit                Both Ends  Upstream  Dnstream   Normal Flow   Limited
  ----------------------------------------------------------------------------
  C6                          0.01      0.35      0.01      0.26         0.01
  C10                         0.01      0.01     11.89      0.01         0.01
  C13                         0.01      0.01     10.44      0.01         0.01
  C18                         0.01      0.01     10.54      0.01         0.01
  C23                         0.01      0.01     10.80      0.01         0.01
  C4                          0.01      0.01     11.56      0.01         0.01
  C7                          0.01      0.01     11.56      0.01         0.01
  C5                          0.35      0.39      0.43      0.37         0.32
  C15                         0.01      0.43      0.01      0.45         0.01
  C21                         0.01      0.36      0.01      0.34         0.01
  

  Analysis begun on:  Mon Sep 20 23:43:43 2021
  Analysis ended on:  Mon Sep 20 23:43:43 2021
  Total elapsed time: < 1 sec