
  EPA STORM WATER MANAGEMENT MODEL - VERSION 5.1 (Build 5.3.0.dev0)
  --------------------------------------------------------------

  WARNING 09: time series interval greater than recording interval for Rain Gage RG1
  WARNING 09: time series interval greater than recording interval for Rain Gage RG2
  WARNING 09: time series interval greater than recording interval for Rain Gage RG3
  WARNING 09: time series interval greater than recording interval for Rain Gage RG4
  
  *********************************************************
  NOTE: The summary statistics displayed in this report are
  based on results found at every computational time step,  
  not just on results from each reporting time step.
  *********************************************************
  
  ****************
  Analysis Options
  ****************
  Flow Units ............... CMS
  Process Models:
    Rainfall/Runoff ........ YES
    RDII ................... NO
    Snowmelt ............... NO
    Groundwater ............ NO
    Flow Routing ........... YES
    Ponding Allowed ........ YES
    Water Quality .......... NO
  Infiltration Method ...... HORTON
  Flow Routing Method ...... DYNWAVE
  Surcharge Method ......... EXTRAN
  Starting Date ............ 08/28/2015 00:00:00
  Ending Date .............. 08/28/2015 23:40:00
  Antecedent Dry Days ...... 0.0
  Report Time Step ......... 00:01:00
  Wet Time Step ............ 00:01:00
  Dry Time Step ............ 00:01:00
  Routing Time Step ........ 5.00 sec
  Variable Time Step ....... YES
  Maximum Trials ........... 8
  Number of Threads ........ 1
  Head Tolerance ........... 0.001500 m
  
  
  **************************        Volume         Depth
  Runoff Quantity Continuity     hectare-m            mm
  **************************     ---------       -------
  Total Precipitation ......         1.932        10.719
  Evaporation Loss .........         0.000         0.000
  Infiltration Loss ........         0.000         0.000
  Surface Runoff ...........         1.728         9.592
  Final Storage ............         0.208         1.155
  Continuity Error (%) .....        -0.258
  
  
  **************************        Volume        Volume
  Flow Routing Continuity        hectare-m      10^6 ltr
  **************************     ---------     ---------
  Dry Weather Inflow .......         0.758         7.576
  Wet Weather Inflow .......         1.725        17.251
  Groundwater Inflow .......         0.000         0.000
  RDII Inflow ..............         0.000         0.000
  External Inflow ..........         0.000         0.000
  External Outflow .........         0.740         7.397
  Flooding Loss ............         0.545         5.454
  Evaporation Loss .........         0.000         0.000
  Exfiltration Loss ........         0.000         0.000
  Initial Stored Volume ....         0.000         0.000
  Final Stored Volume ......         0.887         8.871
  Continuity Error (%) .....        12.506
  
  
  *************************
  Highest Continuity Errors
  *************************
  Node T2 (25.78%)
  Node T5 (21.50%)
  Node T6 (18.31%)
  Node T4 (17.28%)
  Node T3 (15.73%)
  
  
  ***************************
  Time-Step Critical Elements
  ***************************
  None
  
  
  ********************************
  Highest Flow Instability Indexes
  ********************************
  All links are stable.
  
  
  *************************
  Routing Time Step Summary
  *************************
  Minimum Time Step           :     4.50 sec
  Average Time Step           :     5.00 sec
  Maximum Time Step           :     5.00 sec
  Percent in Steady State     :     0.00
  Average Iterations per Step :     2.13
  Percent Not Converging      :     0.56
  
  
  ***************************
  Subcatchment Runoff Summary
  ***************************
  
  ------------------------------------------------------------------------------------------------------------------------------
                            Total      Total      Total      Total     Imperv       Perv      Total       Total     Peak  Runoff
                           Precip      Runon       Evap      Infil     Runoff     Runoff     Runoff      Runoff   Runoff   Coeff
  Subcatchment                 mm         mm         mm         mm         mm         mm         mm    10^6 ltr      CMS
  ------------------------------------------------------------------------------------------------------------------------------
  SC01                       8.77       0.00       0.00       0.00       7.94       0.00       7.94        2.62     0.43   0.905
  SC02                      13.16       0.00       0.00       0.00      12.17       0.00      12.17        2.77     0.49   0.925
  SC03                      13.80       0.00       0.00       0.00      13.30       0.00      13.30        2.39     0.66   0.964
  SC04                      13.16       0.00       0.00       0.00      11.33       0.00      11.33        0.78     0.10   0.861
  SC05                       8.77       0.00       0.00       0.00       7.87       0.00       7.87        1.23     0.20   0.898
  SC06                       7.98       0.00       0.00       0.00       6.15       0.00       6.15        2.00     0.26   0.770
  SC07                      13.16       0.00       0.00       0.00      11.34       0.00      11.34        0.54     0.07   0.862
  SC08                      13.80       0.00       0.00       0.00      12.81       0.00      12.81        3.59     0.60   0.929
  SC09                       7.98       0.00       0.00       0.00       6.67       0.00       6.67        0.46     0.07   0.836
  SC010                      8.77       0.00       0.00       0.00       7.69       0.00       7.69        0.90     0.14   0.877
  
  
  ******************
  Node Depth Summary
  ******************
  
  ---------------------------------------------------------------------------------
                                 Average  Maximum  Maximum  Time of Max    Reported
                                   Depth    Depth      HGL   Occurrence   Max Depth
  Node                 Type       Meters   Meters   Meters  days hr:min      Meters
  ---------------------------------------------------------------------------------
  J1                   JUNCTION     0.05     0.15    34.15     0  21:27        0.15
  J3                   JUNCTION     0.07     0.11    18.11     0  23:40        0.11
  CSO7                 JUNCTION     0.08     1.20    35.20     0  21:25        1.20
  J5                   JUNCTION     0.05     0.14    32.14     0  21:27        0.14
  CSO9                 JUNCTION     0.07     0.25    40.25     0  21:12        0.25
  J8                   JUNCTION     0.07     0.18    36.18     0  21:17        0.18
  CSO8                 JUNCTION     0.12     2.00    34.00     0  19:40        2.00
  J10                  JUNCTION     0.07     0.29    29.29     0  21:12        0.29
  J13                  JUNCTION     0.05     0.18    29.18     0  21:16        0.18
  J15                  JUNCTION     0.10     0.26    15.26     0  21:29        0.26
  J16                  JUNCTION     0.04     0.16    30.16     0  21:27        0.16
  CSO10                JUNCTION     0.07     0.31    30.31     0  21:26        0.31
  J12                  JUNCTION     0.17     1.04    27.04     0  21:38        1.03
  J4                   JUNCTION     0.09     0.80    33.80     0  21:25        0.79
  J6                   JUNCTION     0.04     0.07    25.07     0  22:40        0.07
  J2                   JUNCTION     0.05     0.08    25.08     0  23:40        0.08
  J19                  JUNCTION     0.09     0.17     8.17     0  22:15        0.17
  J9                   JUNCTION     0.07     0.11    29.11     0  23:40        0.11
  J14                  JUNCTION     0.07     0.10    20.10     0  21:56        0.10
  J17                  JUNCTION     0.03     0.05    20.05     0  23:01        0.05
  J7                   JUNCTION     0.05     0.16    39.16     0  21:18        0.16
  J11                  JUNCTION     0.06     0.29    31.29     0  21:23        0.29
  J18                  JUNCTION     0.03     0.13    29.13     0  21:28        0.13
  Out_to_WWTP          OUTFALL      0.09     0.17     6.17     0  22:14        0.17
  T5                   STORAGE      1.02     5.00    32.00     0  23:30        5.00
  T4                   STORAGE      1.09     5.00    32.00     0  22:15        5.00
  T6                   STORAGE      1.18     5.00    36.00     0  22:12        5.00
  T3                   STORAGE      1.33     5.00    27.00     0  21:36        5.00
  T2                   STORAGE      1.20     5.00    26.00     0  21:43        5.00
  T1                   STORAGE      0.89     5.00    15.00     0  22:14        5.00
  
  
  *******************
  Node Inflow Summary
  *******************
  
  -------------------------------------------------------------------------------------------------
                                  Maximum  Maximum                  Lateral       Total        Flow
                                  Lateral    Total  Time of Max      Inflow      Inflow     Balance
                                   Inflow   Inflow   Occurrence      Volume      Volume       Error
  Node                 Type           CMS      CMS  days hr:min    10^6 ltr    10^6 ltr     Percent
  -------------------------------------------------------------------------------------------------
  J1                   JUNCTION     0.207    0.207     0  21:26        2.32        2.32       0.327
  J3                   JUNCTION     0.000    0.127     0  23:40           0        4.34       0.663
  CSO7                 JUNCTION     0.075    0.075     0  21:26         1.1         1.1       0.151
  J5                   JUNCTION     0.104    0.174     0  21:26        1.03        2.12       0.509
  CSO9                 JUNCTION     0.073    0.073     0  21:11       0.841       0.841       0.241
  J8                   JUNCTION     0.274    0.324     0  21:16        3.83        4.65       0.764
  CSO8                 JUNCTION     0.601    0.601     0  21:06        4.03        4.03       0.067
  J10                  JUNCTION     0.666    0.989     0  21:11        3.14        7.09       0.391
  J13                  JUNCTION     0.496    0.496     0  21:16        3.67        3.67       0.379
  J15                  JUNCTION     0.000    0.647     0  21:27           0        9.67       1.391
  J16                  JUNCTION     0.440    0.440     0  21:26        3.69        3.69       0.351
  CSO10                JUNCTION     0.139    0.139     0  21:26        1.17        1.17       0.269
  J12                  JUNCTION     0.000    0.973     0  21:12           0        9.55       9.477
  J4                   JUNCTION     0.000    0.073     0  21:21           0         1.1       0.968
  J6                   JUNCTION     0.000    0.028     0  22:15           0       0.882       0.467
  J2                   JUNCTION     0.000    0.039     0  23:30           0        1.28       0.449
  J19                  JUNCTION     0.000    0.271     0  22:14           0        7.41       0.170
  J9                   JUNCTION     0.000    0.075     0  22:12           0         2.5       0.753
  J14                  JUNCTION     0.000    0.060     0  21:36           0        2.19       0.199
  J17                  JUNCTION     0.000    0.015     0  21:43           0       0.526       0.701
  J7                   JUNCTION     0.000    0.070     0  21:12           0       0.839       1.513
  J11                  JUNCTION     0.000    0.486     0  21:23           0        3.99       0.886
  J18                  JUNCTION     0.000    0.132     0  21:27           0        1.17       0.977
  Out_to_WWTP          OUTFALL      0.000    0.271     0  22:16           0         7.4       0.000
  T5                   STORAGE      0.000    0.192     0  21:27           0        2.31      27.382
  T4                   STORAGE      0.000    0.167     0  21:27           0        2.11      20.891
  T6                   STORAGE      0.000    0.313     0  21:17           0        4.62      22.409
  T3                   STORAGE      0.000    0.843     0  21:41           0        8.72      18.671
  T2                   STORAGE      0.000    0.457     0  21:16           0        3.66      34.733
  T1                   STORAGE      0.000    0.604     0  21:29           0        9.54       9.548
  
  
  **********************
  Node Surcharge Summary
  **********************
  
  Surcharging occurs when water rises above the top of the highest conduit.
  ---------------------------------------------------------------------
                                               Max. Height   Min. Depth
                                   Hours       Above Crown    Below Rim
  Node                 Type      Surcharged         Meters       Meters
  ---------------------------------------------------------------------
  CSO7                 JUNCTION        0.39          0.945        0.000
  CSO8                 JUNCTION        0.96          1.547        0.000
  J4                   JUNCTION        0.35          0.503        1.197
  
  
  *********************
  Node Flooding Summary
  *********************
  
  Flooding refers to all water that overflows a node, whether it ponds or not.
  --------------------------------------------------------------------------
                                                             Total   Maximum
                                 Maximum   Time of Max       Flood    Ponded
                        Hours       Rate    Occurrence      Volume     Depth
  Node                 Flooded       CMS   days hr:min    10^6 ltr    Meters
  --------------------------------------------------------------------------
  CSO7                    0.03     0.005      0  21:26       0.000     0.000
  CSO8                    0.26     0.146      0  21:06       0.042     0.000
  T5                      0.16     0.080      0  23:32       0.039     0.000
  T4                      1.41     0.096      0  23:21       0.362     0.000
  T6                      1.46     0.208      0  23:27       0.671     0.000
  T3                      2.06     0.783      0  21:41       2.556     0.000
  T2                      1.94     0.235      0  23:17       1.191     0.000
  T1                      1.42     0.185      0  23:34       0.595     0.000
  
  
  **********************
  Storage Volume Summary
  **********************
  
  --------------------------------------------------------------------------------------------------
                         Average     Avg  Evap Exfil       Maximum     Max    Time of Max    Maximum
                          Volume    Pcnt  Pcnt  Pcnt        Volume    Pcnt     Occurrence    Outflow
  Storage Unit           1000 m3    Full  Loss  Loss       1000 m3    Full    days hr:min        CMS
  --------------------------------------------------------------------------------------------------
  T5                       0.102      20     0     0         0.500     100       0  23:30      0.039
  T4                       0.109      22     0     0         0.500     100       0  22:15      0.028
  T6                       0.142      24     0     0         0.600     100       0  22:12      0.075
  T3                       0.692      27     0     0         2.600     100       0  21:36      0.060
  T2                       0.240      24     0     0         1.000     100       0  21:43      0.015
  T1                       0.125      18     0     0         0.700     100       0  22:14      0.271
  
  
  ***********************
  Outfall Loading Summary
  ***********************
  
  -----------------------------------------------------------
                         Flow       Avg       Max       Total
                         Freq      Flow      Flow      Volume
  Outfall Node           Pcnt       CMS       CMS    10^6 ltr
  -----------------------------------------------------------
  Out_to_WWTP           99.43     0.087     0.271       7.397
  -----------------------------------------------------------
  System                99.43     0.087     0.271       7.397
  
  
  ********************
  Link Flow Summary
  ********************
  
  -----------------------------------------------------------------------------
                                 Maximum  Time of Max   Maximum    Max/    Max/
                                  |Flow|   Occurrence   |Veloc|    Full    Full
  Link                 Type          CMS  days hr:min     m/sec    Flow   Depth
  -----------------------------------------------------------------------------
  C1                   CONDUIT     0.039     0  23:40      1.05    0.01    0.10
  C6                   CONDUIT     0.070     0  21:27      1.28    1.12    0.73
  C2                   CONDUIT     0.028     0  22:40      1.02    0.03    0.16
  C9                   CONDUIT     0.064     0  21:18      1.07    0.22    0.34
  C16                  CONDUIT     0.480     0  21:18      1.76    0.05    0.15
  C3                   CONDUIT     0.060     0  21:56      1.35    0.02    0.11
  C19                  CONDUIT     0.015     0  23:01      0.31    0.01    0.16
  C11                  CONDUIT     0.127     0  23:40      1.22    0.01    0.09
  C20                  CONDUIT     0.406     0  21:27      2.46    0.01    0.10
  C22                  CONDUIT     0.124     0  21:28      1.31    0.06    0.24
  C12                  CONDUIT     0.075     0  23:40      0.89    0.01    0.28
  C17                  CONDUIT     0.922     0  21:12      3.30    0.05    0.32
  C10                  CONDUIT     0.313     0  21:17      0.94    0.03    0.56
  C13                  CONDUIT     0.843     0  21:41      0.84    0.05    0.76
  C18                  CONDUIT     0.457     0  21:16      1.01    0.02    0.55
  C23                  CONDUIT     0.604     0  21:29      0.84    0.07    0.59
  C4                   CONDUIT     0.192     0  21:27      1.13    0.05    0.57
  C7                   CONDUIT     0.167     0  21:27      0.83    0.04    0.57
  C14                  CONDUIT     0.271     0  22:16      2.08    0.02    0.09
  C5                   CONDUIT     0.073     0  21:21      1.44    1.25    1.00
  C8                   CONDUIT     0.070     0  21:12      1.38    0.88    0.62
  C15                  CONDUIT     0.486     0  21:23      3.63    1.54    0.83
  C21                  CONDUIT     0.132     0  21:27      1.74    0.76    0.50
  V4                   ORIFICE     0.028     0  22:15                      0.35
  V5                   ORIFICE     0.039     0  23:30                      1.00
  V1                   ORIFICE     0.271     0  22:14                      1.00
  V6                   ORIFICE     0.075     0  22:12                      0.43
  V3                   ORIFICE     0.060     0  21:36                      0.65
  V2                   ORIFICE     0.015     0  21:43                      0.11
  
  
  ***************************
  Flow Classification Summary
  ***************************
  
  -------------------------------------------------------------------------------------
                      Adjusted    ---------- Fraction of Time in Flow Class ---------- 
                       /Actual         Up    Down  Sub   Sup   Up    Down  Norm  Inlet 
  Conduit               Length    Dry  Dry   Dry   Crit  Crit  Crit  Crit  Ltd   Ctrl  
  -------------------------------------------------------------------------------------
  C1                      1.00   0.00  0.00  0.00  0.04  0.96  0.00  0.00  0.96  0.00
  C6                      1.00   0.00  0.00  0.00  0.03  0.97  0.00  0.00  0.00  0.00
  C2                      1.00   0.00  0.00  0.00  0.18  0.82  0.00  0.00  0.97  0.00
  C9                      1.00   0.00  0.00  0.00  1.00  0.00  0.00  0.00  1.00  0.00
  C16                     1.00   0.00  0.25  0.00  0.58  0.17  0.00  0.00  0.42  0.00
  C3                      1.00   0.00  0.00  0.00  0.04  0.96  0.00  0.00  0.92  0.00
  C19                     1.00   0.00  0.00  0.00  1.00  0.00  0.00  0.00  1.00  0.00
  C11                     1.00   0.00  0.00  0.00  0.12  0.88  0.00  0.00  1.00  0.00
  C20                     1.00   0.00  0.00  0.00  0.71  0.29  0.00  0.00  0.99  0.00
  C22                     1.00   0.00  0.00  0.00  0.96  0.04  0.00  0.00  1.00  0.00
  C12                     1.00   0.00  0.00  0.00  0.37  0.63  0.00  0.00  0.92  0.00
  C17                     1.00   0.00  0.00  0.00  0.50  0.50  0.00  0.00  0.98  0.00
  C10                     1.00   0.00  0.00  0.00  0.84  0.16  0.00  0.00  0.98  0.00
  C13                     1.00   0.00  0.00  0.00  0.86  0.14  0.00  0.00  0.82  0.00
  C18                     1.00   0.00  0.00  0.00  0.96  0.04  0.00  0.00  0.98  0.00
  C23                     1.00   0.00  0.00  0.00  0.76  0.24  0.00  0.00  0.96  0.00
  C4                      1.00   0.00  0.00  0.00  0.82  0.18  0.00  0.00  0.98  0.00
  C7                      1.00   0.00  0.00  0.00  0.84  0.16  0.00  0.00  0.97  0.00
  C14                     1.00   0.00  0.00  0.00  0.00  1.00  0.00  0.00  0.52  0.00
  C5                      1.00   0.00  0.00  0.00  0.94  0.06  0.00  0.00  0.96  0.00
  C8                      1.00   0.00  0.00  0.00  0.14  0.86  0.00  0.00  0.00  0.00
  C15                     1.00   0.25  0.00  0.00  0.02  0.73  0.00  0.00  0.02  0.00
  C21                     1.00   0.00  0.00  0.00  0.00  1.00  0.00  0.00  0.00  0.00
  
  
  *************************
  Conduit Surcharge Summary
  *************************
  
  ----------------------------------------------------------------------------
                                                           Hours        Hours 
                         --------- Hours Full --------   Above Full   Capacity
  Conduit                Both Ends  Upstream  Dnstream   Normal Flow   Limited
  ----------------------------------------------------------------------------
  C6                          0.01      0.35      0.01      0.14         0.01
  C10                         0.01      0.01      3.46      0.01         0.01
  C13                         0.01      0.01      3.92      0.01         0.01
  C18                         0.01      0.01      3.67      0.01         0.01
  C23                         0.01      0.01      3.39      0.01         0.01
  C4                          0.01      0.01     10.67      0.01         0.01
  C7                          0.01      0.01     10.35      0.01         0.01
  C5                          0.35      0.39      0.52      0.45         0.32
  C15                         0.01      0.96      0.01      0.99         0.01
  

  Analysis begun on:  Mon Sep 20 23:48:02 2021
  Analysis ended on:  Mon Sep 20 23:48:03 2021
  Total elapsed time: 00:00:01