
  EPA STORM WATER MANAGEMENT MODEL - VERSION 5.1 (Build 5.3.0.dev0)
  --------------------------------------------------------------

  WARNING 09: time series interval greater than recording interval for Rain Gage RG1
  WARNING 09: time series interval greater than recording interval for Rain Gage RG2
  WARNING 09: time series interval greater than recording interval for Rain Gage RG3
  WARNING 09: time series interval greater than recording interval for Rain Gage RG4
  
  *********************************************************
  NOTE: The summary statistics displayed in this report are
  based on results found at every computational time step,  
  not just on results from each reporting time step.
  *********************************************************
  
  ****************
  Analysis Options
  ****************
  Flow Units ............... CMS
  Process Models:
    Rainfall/Runoff ........ YES
    RDII ................... NO
    Snowmelt ............... NO
    Groundwater ............ NO
    Flow Routing ........... YES
    Ponding Allowed ........ YES
    Water Quality .......... NO
  Infiltration Method ...... HORTON
  Flow Routing Method ...... DYNWAVE
  Surcharge Method ......... EXTRAN
  Starting Date ............ 08/28/2015 00:00:00
  Ending Date .............. 08/28/2015 23:40:00
  Antecedent Dry Days ...... 0.0
  Report Time Step ......... 00:01:00
  Wet Time Step ............ 00:01:00
  Dry Time Step ............ 00:01:00
  Routing Time Step ........ 5.00 sec
  Variable Time Step ....... YES
  Maximum Trials ........... 8
  Number of Threads ........ 1
  Head Tolerance ........... 0.001500 m
  
  
  **************************        Volume         Depth
  Runoff Quantity Continuity     hectare-m            mm
  **************************     ---------       -------
  Total Precipitation ......         2.031        11.271
  Evaporation Loss .........         0.000         0.000
  Infiltration Loss ........         0.000         0.000
  Surface Runoff ...........         1.950        10.821
  Final Storage ............         0.085         0.469
  Continuity Error (%) .....        -0.174
  
  
  **************************        Volume        Volume
  Flow Routing Continuity        hectare-m      10^6 ltr
  **************************     ---------     ---------
  Dry Weather Inflow .......         0.758         7.576
  Wet Weather Inflow .......         1.949        19.494
  Groundwater Inflow .......         0.000         0.000
  RDII Inflow ..............         0.000         0.000
  External Inflow ..........         0.000         0.000
  External Outflow .........         1.463        14.627
  Flooding Loss ............         0.426         4.258
  Evaporation Loss .........         0.000         0.000
  Exfiltration Loss ........         0.000         0.000
  Initial Stored Volume ....         0.000         0.000
  Final Stored Volume ......         0.687         6.872
  Continuity Error (%) .....         4.852
  
  
  *************************
  Highest Continuity Errors
  *************************
  Node T2 (23.60%)
  Node T3 (13.51%)
  Node T4 (7.26%)
  Node J12 (7.12%)
  Node T5 (5.26%)
  
  
  ***************************
  Time-Step Critical Elements
  ***************************
  None
  
  
  ********************************
  Highest Flow Instability Indexes
  ********************************
  All links are stable.
  
  
  *************************
  Routing Time Step Summary
  *************************
  Minimum Time Step           :     4.50 sec
  Average Time Step           :     5.00 sec
  Maximum Time Step           :     5.00 sec
  Percent in Steady State     :     0.00
  Average Iterations per Step :     2.06
  Percent Not Converging      :     0.55
  
  
  ***************************
  Subcatchment Runoff Summary
  ***************************
  
  ------------------------------------------------------------------------------------------------------------------------------
                            Total      Total      Total      Total     Imperv       Perv      Total       Total     Peak  Runoff
                           Precip      Runon       Evap      Infil     Runoff     Runoff     Runoff      Runoff   Runoff   Coeff
  Subcatchment                 mm         mm         mm         mm         mm         mm         mm    10^6 ltr      CMS
  ------------------------------------------------------------------------------------------------------------------------------
  SC01                      10.50       0.00       0.00       0.00      10.13       0.00      10.13        3.34     0.58   0.965
  SC02                      12.65       0.00       0.00       0.00      12.37       0.00      12.37        2.81     0.68   0.978
  SC03                      10.97       0.00       0.00       0.00      10.73       0.00      10.73        1.93     0.95   0.978
  SC04                      12.65       0.00       0.00       0.00      12.31       0.00      12.31        0.85     0.12   0.973
  SC05                      10.50       0.00       0.00       0.00      10.12       0.00      10.12        1.58     0.26   0.964
  SC06                      11.60       0.00       0.00       0.00      10.72       0.00      10.72        3.49     0.34   0.925
  SC07                      12.65       0.00       0.00       0.00      12.31       0.00      12.31        0.58     0.08   0.973
  SC08                      10.97       0.00       0.00       0.00      10.62       0.00      10.62        2.97     0.94   0.968
  SC09                      11.60       0.00       0.00       0.00      10.86       0.00      10.86        0.75     0.09   0.936
  SC010                     10.50       0.00       0.00       0.00      10.09       0.00      10.09        1.19     0.18   0.961
  
  
  ******************
  Node Depth Summary
  ******************
  
  ---------------------------------------------------------------------------------
                                 Average  Maximum  Maximum  Time of Max    Reported
                                   Depth    Depth      HGL   Occurrence   Max Depth
  Node                 Type       Meters   Meters   Meters  days hr:min      Meters
  ---------------------------------------------------------------------------------
  J1                   JUNCTION     0.05     0.16    34.16     0  02:51        0.16
  J3                   JUNCTION     0.10     0.11    18.11     0  09:31        0.11
  CSO7                 JUNCTION     0.09     1.20    35.20     0  08:16        1.20
  J5                   JUNCTION     0.05     0.14    32.14     0  08:21        0.14
  CSO9                 JUNCTION     0.08     0.31    40.31     0  03:17        0.31
  J8                   JUNCTION     0.08     0.21    36.21     0  03:17        0.21
  CSO8                 JUNCTION     0.11     2.00    34.00     0  08:05        2.00
  J10                  JUNCTION     0.07     0.34    29.34     0  08:12        0.34
  J13                  JUNCTION     0.05     0.21    29.21     0  08:17        0.21
  J15                  JUNCTION     0.14     0.28    15.28     0  03:28        0.28
  J16                  JUNCTION     0.05     0.18    30.18     0  02:51        0.18
  CSO10                JUNCTION     0.08     0.39    30.39     0  03:21        0.39
  J12                  JUNCTION     0.68     1.02    27.02     0  09:02        1.02
  J4                   JUNCTION     0.10     1.33    34.33     0  08:19        1.08
  J6                   JUNCTION     0.06     0.07    25.07     0  09:48        0.07
  J2                   JUNCTION     0.06     0.08    25.08     0  09:28        0.08
  J19                  JUNCTION     0.13     0.17     8.17     0  03:36        0.17
  J9                   JUNCTION     0.09     0.11    29.11     0  04:39        0.11
  J14                  JUNCTION     0.09     0.11    20.11     0  23:40        0.11
  J17                  JUNCTION     0.05     0.05    20.05     0  09:45        0.05
  J7                   JUNCTION     0.06     0.18    39.18     0  03:19        0.18
  J11                  JUNCTION     0.06     0.30    31.30     0  08:21        0.30
  J18                  JUNCTION     0.04     0.15    29.15     0  03:23        0.15
  Out_to_WWTP          OUTFALL      0.13     0.17     6.17     0  04:04        0.17
  T5                   STORAGE      2.87     4.45    31.45     0  09:26        4.45
  T4                   STORAGE      3.26     5.00    32.00     0  09:05        5.00
  T6                   STORAGE      3.54     5.00    36.00     0  04:00        5.00
  T3                   STORAGE      3.80     5.00    27.00     0  08:57        5.00
  T2                   STORAGE      3.94     5.00    26.00     0  08:27        5.00
  T1                   STORAGE      2.31     5.00    15.00     0  03:34        5.00
  
  
  *******************
  Node Inflow Summary
  *******************
  
  -------------------------------------------------------------------------------------------------
                                  Maximum  Maximum                  Lateral       Total        Flow
                                  Lateral    Total  Time of Max      Inflow      Inflow     Balance
                                   Inflow   Inflow   Occurrence      Volume      Volume       Error
  Node                 Type           CMS      CMS  days hr:min    10^6 ltr    10^6 ltr     Percent
  -------------------------------------------------------------------------------------------------
  J1                   JUNCTION     0.263    0.263     0  02:46        2.67        2.67       0.002
  J3                   JUNCTION     0.000    0.125     0  09:28           0        8.35       0.295
  CSO7                 JUNCTION     0.091    0.091     0  08:16        1.15        1.15       0.028
  J5                   JUNCTION     0.123    0.180     0  08:21         1.1        2.24      -0.031
  CSO9                 JUNCTION     0.088    0.088     0  03:11        1.13        1.13       0.080
  J8                   JUNCTION     0.350    0.425     0  03:16        5.32        6.44       0.166
  CSO8                 JUNCTION     0.947    0.947     0  08:11        3.42        3.42      -0.017
  J10                  JUNCTION     0.966    1.417     0  08:11        2.68        5.94       0.025
  J13                  JUNCTION     0.697    0.697     0  08:16        3.72        3.72      -0.136
  J15                  JUNCTION     0.000    0.743     0  03:22           0        15.3       0.414
  J16                  JUNCTION     0.581    0.581     0  02:46        4.42        4.42       0.026
  CSO10                JUNCTION     0.182    0.182     0  03:21        1.46        1.46       0.053
  J12                  JUNCTION     0.000    1.318     0  08:12           0        10.9       7.671
  J4                   JUNCTION     0.000    0.085     0  08:17           0        1.15       0.086
  J6                   JUNCTION     0.000    0.028     0  09:05           0        1.78       0.171
  J2                   JUNCTION     0.000    0.037     0  09:26           0         2.4       0.137
  J19                  JUNCTION     0.000    0.271     0  03:35           0        14.6       0.051
  J9                   JUNCTION     0.000    0.075     0  04:00           0        4.85       0.196
  J14                  JUNCTION     0.000    0.060     0  08:57           0        4.19       0.106
  J17                  JUNCTION     0.000    0.015     0  08:27           0        1.09       0.364
  J7                   JUNCTION     0.000    0.080     0  03:16           0        1.13       0.577
  J11                  JUNCTION     0.000    0.486     0  08:21           0        3.27       0.317
  J18                  JUNCTION     0.000    0.171     0  03:22           0        1.46       0.154
  Out_to_WWTP          OUTFALL      0.000    0.271     0  03:36           0        14.6       0.000
  T5                   STORAGE      0.000    0.243     0  02:51           0        2.67       5.549
  T4                   STORAGE      0.000    0.175     0  08:22           0        2.24       7.832
  T6                   STORAGE      0.000    0.407     0  03:17           0        6.43       4.723
  T3                   STORAGE      0.000    1.155     0  08:14           0        10.1      15.616
  T2                   STORAGE      0.000    0.622     0  08:17           0        3.73      30.895
  T1                   STORAGE      0.000    0.700     0  03:28           0        15.2       1.456
  
  
  **********************
  Node Surcharge Summary
  **********************
  
  Surcharging occurs when water rises above the top of the highest conduit.
  ---------------------------------------------------------------------
                                               Max. Height   Min. Depth
                                   Hours       Above Crown    Below Rim
  Node                 Type      Surcharged         Meters       Meters
  ---------------------------------------------------------------------
  CSO7                 JUNCTION        0.40          0.945        0.000
  CSO8                 JUNCTION        0.48          1.547        0.000
  J4                   JUNCTION        0.40          1.029        0.671
  
  
  *********************
  Node Flooding Summary
  *********************
  
  Flooding refers to all water that overflows a node, whether it ponds or not.
  --------------------------------------------------------------------------
                                                             Total   Maximum
                                 Maximum   Time of Max       Flood    Ponded
                        Hours       Rate    Occurrence      Volume     Depth
  Node                 Flooded       CMS   days hr:min    10^6 ltr    Meters
  --------------------------------------------------------------------------
  CSO7                    0.12     0.026      0  08:16       0.002     0.000
  CSO8                    0.26     0.463      0  08:11       0.148     0.000
  T4                      2.26     0.053      0  09:05       0.092     0.000
  T6                      5.43     0.290      0  08:40       1.107     0.000
  T3                     10.91     0.435      0  09:04       1.869     0.000
  T2                      6.57     0.335      0  08:27       0.842     0.000
  T1                      0.37     0.360      0  03:34       0.199     0.000
  
  
  **********************
  Storage Volume Summary
  **********************
  
  --------------------------------------------------------------------------------------------------
                         Average     Avg  Evap Exfil       Maximum     Max    Time of Max    Maximum
                          Volume    Pcnt  Pcnt  Pcnt        Volume    Pcnt     Occurrence    Outflow
  Storage Unit           1000 m3    Full  Loss  Loss       1000 m3    Full    days hr:min        CMS
  --------------------------------------------------------------------------------------------------
  T5                       0.287      57     0     0         0.445      89       0  09:26      0.037
  T4                       0.326      65     0     0         0.500     100       0  09:05      0.028
  T6                       0.425      71     0     0         0.600     100       0  04:00      0.075
  T3                       1.974      76     0     0         2.600     100       0  08:57      0.366
  T2                       0.789      79     0     0         1.000     100       0  08:27      0.015
  T1                       0.324      46     0     0         0.700     100       0  03:34      0.271
  
  
  ***********************
  Outfall Loading Summary
  ***********************
  
  -----------------------------------------------------------
                         Flow       Avg       Max       Total
                         Freq      Flow      Flow      Volume
  Outfall Node           Pcnt       CMS       CMS    10^6 ltr
  -----------------------------------------------------------
  Out_to_WWTP           99.43     0.173     0.271      14.626
  -----------------------------------------------------------
  System                99.43     0.173     0.271      14.626
  
  
  ********************
  Link Flow Summary
  ********************
  
  -----------------------------------------------------------------------------
                                 Maximum  Time of Max   Maximum    Max/    Max/
                                  |Flow|   Occurrence   |Veloc|    Full    Full
  Link                 Type          CMS  days hr:min     m/sec    Flow   Depth
  -----------------------------------------------------------------------------
  C1                   CONDUIT     0.037     0  09:28      1.07    0.01    0.09
  C6                   CONDUIT     0.071     0  08:22      1.28    1.12    0.74
  C2                   CONDUIT     0.028     0  09:47      1.01    0.03    0.15
  C9                   CONDUIT     0.078     0  03:19      1.12    0.27    0.38
  C16                  CONDUIT     0.485     0  08:17      1.78    0.05    0.16
  C3                   CONDUIT     0.060     0  19:51      1.40    0.02    0.11
  C19                  CONDUIT     0.015     0  09:45      0.45    0.01    0.16
  C11                  CONDUIT     0.125     0  09:31      1.49    0.01    0.09
  C20                  CONDUIT     0.528     0  02:51      3.70    0.02    0.11
  C22                  CONDUIT     0.163     0  03:23      1.56    0.07    0.27
  C12                  CONDUIT     0.075     0  04:40      1.12    0.01    0.28
  C17                  CONDUIT     1.251     0  08:12      3.62    0.06    0.29
  C10                  CONDUIT     0.407     0  03:17      1.33    0.04    0.57
  C13                  CONDUIT     1.155     0  08:14      1.45    0.07    0.75
  C18                  CONDUIT     0.622     0  08:17      1.75    0.02    0.55
  C23                  CONDUIT     0.700     0  03:28      1.77    0.08    0.59
  C4                   CONDUIT     0.243     0  02:51      1.83    0.06    0.58
  C7                   CONDUIT     0.175     0  08:22      1.25    0.04    0.57
  C14                  CONDUIT     0.271     0  03:36      2.08    0.02    0.09
  C5                   CONDUIT     0.085     0  08:17      1.67    1.45    1.00
  C8                   CONDUIT     0.080     0  03:16      1.48    1.00    0.76
  C15                  CONDUIT     0.486     0  08:21      3.82    1.55    0.83
  C21                  CONDUIT     0.171     0  03:22      1.82    0.98    0.61
  V4                   ORIFICE     0.028     0  09:05                      0.35
  V5                   ORIFICE     0.037     0  09:26                      1.00
  V1                   ORIFICE     0.271     0  03:35                      1.00
  V6                   ORIFICE     0.075     0  04:00                      0.43
  V3                   ORIFICE     0.060     0  08:57                      0.32
  V2                   ORIFICE     0.015     0  08:27                      0.11
  
  
  ***************************
  Flow Classification Summary
  ***************************
  
  -------------------------------------------------------------------------------------
                      Adjusted    ---------- Fraction of Time in Flow Class ---------- 
                       /Actual         Up    Down  Sub   Sup   Up    Down  Norm  Inlet 
  Conduit               Length    Dry  Dry   Dry   Crit  Crit  Crit  Crit  Ltd   Ctrl  
  -------------------------------------------------------------------------------------
  C1                      1.00   0.00  0.00  0.00  0.03  0.97  0.00  0.00  0.96  0.00
  C6                      1.00   0.00  0.00  0.00  0.03  0.97  0.00  0.00  0.00  0.00
  C2                      1.00   0.00  0.00  0.00  0.09  0.91  0.00  0.00  0.98  0.00
  C9                      1.00   0.00  0.00  0.00  0.99  0.01  0.00  0.00  1.00  0.00
  C16                     1.00   0.00  0.01  0.00  0.67  0.32  0.00  0.00  0.46  0.00
  C3                      1.00   0.00  0.00  0.00  0.03  0.97  0.00  0.00  0.85  0.00
  C19                     1.00   0.00  0.00  0.00  1.00  0.00  0.00  0.00  1.00  0.00
  C11                     1.00   0.00  0.00  0.00  0.15  0.85  0.00  0.00  1.00  0.00
  C20                     1.00   0.00  0.00  0.00  0.75  0.25  0.00  0.00  0.99  0.00
  C22                     1.00   0.00  0.00  0.00  0.93  0.07  0.00  0.00  1.00  0.00
  C12                     1.00   0.00  0.00  0.00  0.85  0.15  0.00  0.00  0.95  0.00
  C17                     1.00   0.00  0.00  0.00  0.77  0.23  0.00  0.00  0.98  0.00
  C10                     1.00   0.00  0.00  0.00  0.96  0.04  0.00  0.00  0.98  0.00
  C13                     1.00   0.00  0.00  0.00  0.94  0.06  0.00  0.00  0.30  0.00
  C18                     1.00   0.00  0.00  0.00  0.95  0.05  0.00  0.00  0.98  0.00
  C23                     1.00   0.00  0.00  0.00  0.94  0.06  0.00  0.00  0.96  0.00
  C4                      1.00   0.00  0.00  0.00  0.95  0.05  0.00  0.00  0.98  0.00
  C7                      1.00   0.00  0.00  0.00  0.94  0.06  0.00  0.00  0.96  0.00
  C14                     1.00   0.00  0.00  0.00  0.00  1.00  0.00  0.00  0.67  0.00
  C5                      1.00   0.00  0.00  0.00  0.93  0.07  0.00  0.00  0.96  0.00
  C8                      1.00   0.00  0.00  0.00  0.11  0.89  0.00  0.00  0.01  0.00
  C15                     1.00   0.01  0.00  0.00  0.02  0.98  0.00  0.00  0.02  0.00
  C21                     1.00   0.00  0.00  0.00  0.00  1.00  0.00  0.00  0.00  0.00
  
  
  *************************
  Conduit Surcharge Summary
  *************************
  
  ----------------------------------------------------------------------------
                                                           Hours        Hours 
                         --------- Hours Full --------   Above Full   Capacity
  Conduit                Both Ends  Upstream  Dnstream   Normal Flow   Limited
  ----------------------------------------------------------------------------
  C6                          0.01      0.40      0.01      0.23         0.01
  C10                         0.01      0.01     20.53      0.01         0.01
  C13                         0.01      0.01     19.57      0.01         0.01
  C18                         0.01      0.01     20.40      0.01         0.01
  C23                         0.01      0.01     17.53      0.01         0.01
  C4                          0.01      0.01     20.88      0.01         0.01
  C7                          0.01      0.01     20.65      0.01         0.01
  C5                          0.37      0.40      0.50      0.46         0.34
  C8                          0.01      0.01      0.01      0.03         0.01
  C15                         0.01      0.48      0.01      0.50         0.01
  

  Analysis begun on:  Mon Sep 20 23:53:47 2021
  Analysis ended on:  Mon Sep 20 23:53:47 2021
  Total elapsed time: < 1 sec