
  EPA STORM WATER MANAGEMENT MODEL - VERSION 5.1 (Build 5.3.0.dev0)
  --------------------------------------------------------------

  WARNING 09: time series interval greater than recording interval for Rain Gage RG1
  WARNING 09: time series interval greater than recording interval for Rain Gage RG2
  WARNING 09: time series interval greater than recording interval for Rain Gage RG3
  WARNING 09: time series interval greater than recording interval for Rain Gage RG4
  
  *********************************************************
  NOTE: The summary statistics displayed in this report are
  based on results found at every computational time step,  
  not just on results from each reporting time step.
  *********************************************************
  
  ****************
  Analysis Options
  ****************
  Flow Units ............... CMS
  Process Models:
    Rainfall/Runoff ........ YES
    RDII ................... NO
    Snowmelt ............... NO
    Groundwater ............ NO
    Flow Routing ........... YES
    Ponding Allowed ........ YES
    Water Quality .......... NO
  Infiltration Method ...... HORTON
  Flow Routing Method ...... DYNWAVE
  Surcharge Method ......... EXTRAN
  Starting Date ............ 08/28/2015 00:00:00
  Ending Date .............. 08/28/2015 23:40:00
  Antecedent Dry Days ...... 0.0
  Report Time Step ......... 00:01:00
  Wet Time Step ............ 00:01:00
  Dry Time Step ............ 00:01:00
  Routing Time Step ........ 5.00 sec
  Variable Time Step ....... YES
  Maximum Trials ........... 8
  Number of Threads ........ 1
  Head Tolerance ........... 0.001500 m
  
  
  **************************        Volume         Depth
  Runoff Quantity Continuity     hectare-m            mm
  **************************     ---------       -------
  Total Precipitation ......         3.030        16.816
  Evaporation Loss .........         0.000         0.000
  Infiltration Loss ........         0.000         0.000
  Surface Runoff ...........         2.975        16.507
  Final Storage ............         0.058         0.320
  Continuity Error (%) .....        -0.065
  
  
  **************************        Volume        Volume
  Flow Routing Continuity        hectare-m      10^6 ltr
  **************************     ---------     ---------
  Dry Weather Inflow .......         0.758         7.576
  Wet Weather Inflow .......         2.974        29.743
  Groundwater Inflow .......         0.000         0.000
  RDII Inflow ..............         0.000         0.000
  External Inflow ..........         0.000         0.000
  External Outflow .........         1.196        11.960
  Flooding Loss ............         1.521        15.206
  Evaporation Loss .........         0.000         0.000
  Exfiltration Loss ........         0.000         0.000
  Initial Stored Volume ....         0.000         0.000
  Final Stored Volume ......         0.788         7.877
  Continuity Error (%) .....         6.099
  
  
  *************************
  Highest Continuity Errors
  *************************
  Node T2 (20.60%)
  Node T3 (11.10%)
  Node T4 (10.83%)
  Node T5 (9.68%)
  Node T6 (8.40%)
  
  
  ***************************
  Time-Step Critical Elements
  ***************************
  None
  
  
  ********************************
  Highest Flow Instability Indexes
  ********************************
  Link C15 (2)
  Link C20 (1)
  
  
  *************************
  Routing Time Step Summary
  *************************
  Minimum Time Step           :     4.50 sec
  Average Time Step           :     5.00 sec
  Maximum Time Step           :     5.00 sec
  Percent in Steady State     :     0.00
  Average Iterations per Step :     2.03
  Percent Not Converging      :     0.12
  
  
  ***************************
  Subcatchment Runoff Summary
  ***************************
  
  ------------------------------------------------------------------------------------------------------------------------------
                            Total      Total      Total      Total     Imperv       Perv      Total       Total     Peak  Runoff
                           Precip      Runon       Evap      Infil     Runoff     Runoff     Runoff      Runoff   Runoff   Coeff
  Subcatchment                 mm         mm         mm         mm         mm         mm         mm    10^6 ltr      CMS
  ------------------------------------------------------------------------------------------------------------------------------
  SC01                      15.78       0.00       0.00       0.00      15.47       0.00      15.47        5.11     0.50   0.981
  SC02                      15.89       0.00       0.00       0.00      15.71       0.00      15.71        3.57     0.32   0.988
  SC03                      18.47       0.00       0.00       0.00      18.34       0.00      18.34        3.30     0.30   0.993
  SC04                      15.89       0.00       0.00       0.00      15.58       0.00      15.58        1.07     0.08   0.980
  SC05                      15.78       0.00       0.00       0.00      15.46       0.00      15.46        2.41     0.23   0.980
  SC06                      17.28       0.00       0.00       0.00      16.78       0.00      16.78        5.46     0.36   0.971
  SC07                      15.89       0.00       0.00       0.00      15.58       0.00      15.58        0.74     0.05   0.980
  SC08                      18.47       0.00       0.00       0.00      18.21       0.00      18.21        5.10     0.40   0.986
  SC09                      17.28       0.00       0.00       0.00      16.94       0.00      16.94        1.17     0.09   0.981
  SC010                     15.78       0.00       0.00       0.00      15.41       0.00      15.41        1.81     0.16   0.977
  
  
  ******************
  Node Depth Summary
  ******************
  
  ---------------------------------------------------------------------------------
                                 Average  Maximum  Maximum  Time of Max    Reported
                                   Depth    Depth      HGL   Occurrence   Max Depth
  Node                 Type       Meters   Meters   Meters  days hr:min      Meters
  ---------------------------------------------------------------------------------
  J1                   JUNCTION     0.06     0.16    34.16     0  14:57        0.16
  J3                   JUNCTION     0.08     0.11    18.11     0  15:33        0.11
  CSO7                 JUNCTION     0.08     0.22    34.22     0  14:57        0.22
  J5                   JUNCTION     0.05     0.12    32.12     0  14:58        0.12
  CSO9                 JUNCTION     0.10     0.93    40.93     0  14:46        0.64
  J8                   JUNCTION     0.09     0.22    36.22     0  14:51        0.22
  CSO8                 JUNCTION     0.12     1.99    33.99     0  14:45        1.69
  J10                  JUNCTION     0.08     0.24    29.24     0  14:48        0.24
  J13                  JUNCTION     0.05     0.15    29.15     0  14:57        0.15
  J15                  JUNCTION     0.13     0.28    15.28     0  14:59        0.28
  J16                  JUNCTION     0.06     0.17    30.17     0  14:57        0.17
  CSO10                JUNCTION     0.10     0.36    30.36     0  14:56        0.36
  J12                  JUNCTION     0.47     1.02    27.02     0  14:18        1.02
  J4                   JUNCTION     0.10     0.25    33.25     0  14:59        0.24
  J6                   JUNCTION     0.05     0.07    25.07     0  14:57        0.07
  J2                   JUNCTION     0.05     0.08    25.08     0  14:35        0.08
  J19                  JUNCTION     0.11     0.17     8.17     0  13:20        0.17
  J9                   JUNCTION     0.08     0.11    29.11     0  14:46        0.11
  J14                  JUNCTION     0.07     0.10    20.10     0  14:26        0.10
  J17                  JUNCTION     0.04     0.05    20.05     0  15:28        0.05
  J7                   JUNCTION     0.07     0.18    39.18     0  14:53        0.18
  J11                  JUNCTION     0.08     0.26    31.26     0  14:47        0.26
  J18                  JUNCTION     0.05     0.14    29.14     0  14:58        0.14
  Out_to_WWTP          OUTFALL      0.11     0.17     6.17     0  18:02        0.17
  T5                   STORAGE      2.35     5.00    32.00     0  13:50        5.00
  T4                   STORAGE      2.34     5.00    32.00     0  14:15        5.00
  T6                   STORAGE      2.56     5.00    36.00     0  12:49        5.00
  T3                   STORAGE      2.50     5.00    27.00     0  14:05        5.00
  T2                   STORAGE      2.43     5.00    26.00     0  14:08        5.00
  T1                   STORAGE      2.15     5.00    15.00     0  13:19        5.00
  
  
  *******************
  Node Inflow Summary
  *******************
  
  -------------------------------------------------------------------------------------------------
                                  Maximum  Maximum                  Lateral       Total        Flow
                                  Lateral    Total  Time of Max      Inflow      Inflow     Balance
                                   Inflow   Inflow   Occurrence      Volume      Volume       Error
  Node                 Type           CMS      CMS  days hr:min    10^6 ltr    10^6 ltr     Percent
  -------------------------------------------------------------------------------------------------
  J1                   JUNCTION     0.247    0.247     0  14:56         3.5         3.5       0.047
  J3                   JUNCTION     0.000    0.127     0  14:57           0        6.17       0.441
  CSO7                 JUNCTION     0.064    0.064     0  14:56        1.31        1.31       0.020
  J5                   JUNCTION     0.083    0.136     0  14:56        1.32        2.63       0.037
  CSO9                 JUNCTION     0.092    0.092     0  14:46        1.55        1.55       0.022
  J8                   JUNCTION     0.389    0.454     0  14:46        7.29        8.84       0.072
  CSO8                 JUNCTION     0.408    0.408     0  14:46        5.54        5.54       0.001
  J10                  JUNCTION     0.316    0.646     0  14:46        4.05        9.59      -0.009
  J13                  JUNCTION     0.334    0.334     0  14:56        4.48        4.48      -0.021
  J15                  JUNCTION     0.000    0.749     0  14:57           0        15.1       0.457
  J16                  JUNCTION     0.516    0.516     0  14:56        6.18        6.18       0.046
  CSO10                JUNCTION     0.165    0.165     0  14:56        2.08        2.08       0.037
  J12                  JUNCTION     0.000    0.689     0  14:48           0        13.2       6.624
  J4                   JUNCTION     0.000    0.061     0  14:57           0         1.3       0.121
  J6                   JUNCTION     0.000    0.028     0  14:15           0        1.31       0.286
  J2                   JUNCTION     0.000    0.039     0  13:50           0        1.89       0.260
  J19                  JUNCTION     0.000    0.271     0  13:19           0          12       0.078
  J9                   JUNCTION     0.000    0.075     0  13:00           0        3.61       0.111
  J14                  JUNCTION     0.000    0.060     0  14:05           0        2.97       0.147
  J17                  JUNCTION     0.000    0.015     0  14:08           0       0.741       0.505
  J7                   JUNCTION     0.000    0.088     0  14:46           0        1.55       0.166
  J11                  JUNCTION     0.000    0.407     0  14:46           0        5.54       0.119
  J18                  JUNCTION     0.000    0.156     0  14:57           0        2.08       0.129
  Out_to_WWTP          OUTFALL      0.000    0.271     0  13:20           0          12       0.000
  T5                   STORAGE      0.000    0.227     0  14:57           0         3.5      10.720
  T4                   STORAGE      0.000    0.132     0  14:58           0        2.63      12.141
  T6                   STORAGE      0.000    0.431     0  14:51           0        8.83       9.173
  T3                   STORAGE      0.000    0.700     0  14:49           0        12.4      12.480
  T2                   STORAGE      0.000    0.307     0  14:57           0        4.48      25.949
  T1                   STORAGE      0.000    0.684     0  14:59           0        15.1       2.642
  
  
  **********************
  Node Surcharge Summary
  **********************
  
  Surcharging occurs when water rises above the top of the highest conduit.
  ---------------------------------------------------------------------
                                               Max. Height   Min. Depth
                                   Hours       Above Crown    Below Rim
  Node                 Type      Surcharged         Meters       Meters
  ---------------------------------------------------------------------
  CSO9                 JUNCTION        0.05          0.615        1.067
  CSO8                 JUNCTION        0.26          1.534        0.013
  
  
  *********************
  Node Flooding Summary
  *********************
  
  Flooding refers to all water that overflows a node, whether it ponds or not.
  --------------------------------------------------------------------------
                                                             Total   Maximum
                                 Maximum   Time of Max       Flood    Ponded
                        Hours       Rate    Occurrence      Volume     Depth
  Node                 Flooded       CMS   days hr:min    10^6 ltr    Meters
  --------------------------------------------------------------------------
  T5                      4.95     0.188      0  14:57       0.936     0.000
  T4                      4.99     0.104      0  14:58       0.640     0.000
  T6                      7.35     0.372      0  12:52       3.958     0.000
  T3                      8.80     0.640      0  14:49       5.431     0.000
  T2                      6.89     0.292      0  14:57       1.842     0.000
  T1                      4.31     0.414      0  14:59       2.399     0.000
  
  
  **********************
  Storage Volume Summary
  **********************
  
  --------------------------------------------------------------------------------------------------
                         Average     Avg  Evap Exfil       Maximum     Max    Time of Max    Maximum
                          Volume    Pcnt  Pcnt  Pcnt        Volume    Pcnt     Occurrence    Outflow
  Storage Unit           1000 m3    Full  Loss  Loss       1000 m3    Full    days hr:min        CMS
  --------------------------------------------------------------------------------------------------
  T5                       0.235      47     0     0         0.500     100       0  13:50      0.039
  T4                       0.234      47     0     0         0.500     100       0  14:15      0.028
  T6                       0.307      51     0     0         0.600     100       0  12:49      0.075
  T3                       1.300      50     0     0         2.600     100       0  14:05      0.092
  T2                       0.487      49     0     0         1.000     100       0  14:08      0.015
  T1                       0.302      43     0     0         0.700     100       0  13:19      0.271
  
  
  ***********************
  Outfall Loading Summary
  ***********************
  
  -----------------------------------------------------------
                         Flow       Avg       Max       Total
                         Freq      Flow      Flow      Volume
  Outfall Node           Pcnt       CMS       CMS    10^6 ltr
  -----------------------------------------------------------
  Out_to_WWTP           99.43     0.141     0.271      11.960
  -----------------------------------------------------------
  System                99.43     0.141     0.271      11.960
  
  
  ********************
  Link Flow Summary
  ********************
  
  -----------------------------------------------------------------------------
                                 Maximum  Time of Max   Maximum    Max/    Max/
                                  |Flow|   Occurrence   |Veloc|    Full    Full
  Link                 Type          CMS  days hr:min     m/sec    Flow   Depth
  -----------------------------------------------------------------------------
  C1                   CONDUIT     0.039     0  14:35      1.03    0.01    0.10
  C6                   CONDUIT     0.057     0  14:59      1.26    0.90    0.61
  C2                   CONDUIT     0.028     0  14:57      1.00    0.03    0.16
  C9                   CONDUIT     0.079     0  14:53      1.11    0.27    0.39
  C16                  CONDUIT     0.363     0  14:48      1.62    0.03    0.12
  C3                   CONDUIT     0.060     0  14:25      1.36    0.02    0.11
  C19                  CONDUIT     0.015     0  15:28      0.42    0.01    0.17
  C11                  CONDUIT     0.127     0  15:34      1.54    0.01    0.10
  C20                  CONDUIT     0.472     0  14:57      2.51    0.01    0.11
  C22                  CONDUIT     0.145     0  14:58      1.40    0.07    0.26
  C12                  CONDUIT     0.075     0  14:46      0.76    0.01    0.28
  C17                  CONDUIT     0.614     0  14:48      2.57    0.03    0.31
  C10                  CONDUIT     0.431     0  14:51      0.94    0.04    0.57
  C13                  CONDUIT     0.700     0  14:49      0.85    0.04    0.76
  C18                  CONDUIT     0.307     0  14:57      1.01    0.01    0.54
  C23                  CONDUIT     0.684     0  14:59      0.84    0.08    0.59
  C4                   CONDUIT     0.227     0  14:57      1.13    0.06    0.58
  C7                   CONDUIT     0.132     0  14:58      0.82    0.03    0.56
  C14                  CONDUIT     0.271     0  13:20      2.08    0.02    0.09
  C5                   CONDUIT     0.061     0  14:57      1.27    1.05    0.90
  C8                   CONDUIT     0.088     0  14:46      1.36    1.11    0.77
  C15                  CONDUIT     0.407     0  14:46      3.05    1.29    0.79
  C21                  CONDUIT     0.156     0  14:57      1.78    0.89    0.56
  V4                   ORIFICE     0.028     0  14:15                      0.35
  V5                   ORIFICE     0.039     0  13:50                      1.00
  V1                   ORIFICE     0.271     0  13:19                      1.00
  V6                   ORIFICE     0.075     0  13:00                      0.43
  V3                   ORIFICE     0.060     0  14:05                      0.32
  V2                   ORIFICE     0.015     0  14:08                      0.11
  
  
  ***************************
  Flow Classification Summary
  ***************************
  
  -------------------------------------------------------------------------------------
                      Adjusted    ---------- Fraction of Time in Flow Class ---------- 
                       /Actual         Up    Down  Sub   Sup   Up    Down  Norm  Inlet 
  Conduit               Length    Dry  Dry   Dry   Crit  Crit  Crit  Crit  Ltd   Ctrl  
  -------------------------------------------------------------------------------------
  C1                      1.00   0.00  0.00  0.00  0.04  0.96  0.00  0.00  0.96  0.00
  C6                      1.00   0.00  0.00  0.00  0.01  0.99  0.00  0.00  0.00  0.00
  C2                      1.00   0.00  0.00  0.00  0.14  0.86  0.00  0.00  0.97  0.00
  C9                      1.00   0.00  0.00  0.00  1.00  0.00  0.00  0.00  1.00  0.00
  C16                     1.00   0.00  0.25  0.00  0.29  0.45  0.00  0.00  0.23  0.00
  C3                      1.00   0.00  0.00  0.00  0.03  0.96  0.00  0.00  1.00  0.00
  C19                     1.00   0.00  0.00  0.00  1.00  0.00  0.00  0.00  1.00  0.00
  C11                     1.00   0.00  0.00  0.00  0.23  0.77  0.00  0.00  1.00  0.00
  C20                     1.00   0.00  0.00  0.00  0.57  0.43  0.00  0.00  0.99  0.00
  C22                     1.00   0.00  0.00  0.00  0.86  0.14  0.00  0.00  1.00  0.00
  C12                     1.00   0.00  0.00  0.00  0.71  0.28  0.00  0.00  0.95  0.00
  C17                     1.00   0.00  0.00  0.00  0.66  0.34  0.00  0.00  0.99  0.00
  C10                     1.00   0.00  0.00  0.00  0.84  0.16  0.00  0.00  0.98  0.00
  C13                     1.00   0.00  0.00  0.00  0.88  0.12  0.00  0.00  0.48  0.00
  C18                     1.00   0.00  0.00  0.00  0.96  0.04  0.00  0.00  0.98  0.00
  C23                     1.00   0.00  0.00  0.00  0.76  0.24  0.00  0.00  0.96  0.00
  C4                      1.00   0.00  0.00  0.00  0.82  0.18  0.00  0.00  0.98  0.00
  C7                      1.00   0.00  0.00  0.00  0.84  0.16  0.00  0.00  0.97  0.00
  C14                     1.00   0.00  0.00  0.00  0.00  1.00  0.00  0.00  0.33  0.00
  C5                      1.00   0.00  0.00  0.00  0.94  0.06  0.00  0.00  0.99  0.00
  C8                      1.00   0.00  0.00  0.00  0.18  0.82  0.00  0.00  0.00  0.00
  C15                     1.00   0.25  0.00  0.00  0.00  0.75  0.00  0.00  0.00  0.00
  C21                     1.00   0.00  0.00  0.00  0.00  1.00  0.00  0.00  0.00  0.00
  
  
  *************************
  Conduit Surcharge Summary
  *************************
  
  ----------------------------------------------------------------------------
                                                           Hours        Hours 
                         --------- Hours Full --------   Above Full   Capacity
  Conduit                Both Ends  Upstream  Dnstream   Normal Flow   Limited
  ----------------------------------------------------------------------------
  C10                         0.01      0.01     12.01      0.01         0.01
  C13                         0.01      0.01     11.46      0.01         0.01
  C18                         0.01      0.01     11.15      0.01         0.01
  C23                         0.01      0.01     11.67      0.01         0.01
  C4                          0.01      0.01     12.16      0.01         0.01
  C7                          0.01      0.01     11.92      0.01         0.01
  C5                          0.01      0.01      0.01      0.05         0.01
  C8                          0.01      0.05      0.01      0.06         0.01
  C15                         0.01      0.26      0.01      0.43         0.01
  

  Analysis begun on:  Mon Sep 20 23:59:32 2021
  Analysis ended on:  Mon Sep 20 23:59:32 2021
  Total elapsed time: < 1 sec