
  EPA STORM WATER MANAGEMENT MODEL - VERSION 5.1 (Build 5.3.0.dev0)
  --------------------------------------------------------------

  WARNING 09: time series interval greater than recording interval for Rain Gage RG1
  WARNING 09: time series interval greater than recording interval for Rain Gage RG2
  WARNING 09: time series interval greater than recording interval for Rain Gage RG3
  WARNING 09: time series interval greater than recording interval for Rain Gage RG4
  
  *********************************************************
  NOTE: The summary statistics displayed in this report are
  based on results found at every computational time step,  
  not just on results from each reporting time step.
  *********************************************************
  
  ****************
  Analysis Options
  ****************
  Flow Units ............... CMS
  Process Models:
    Rainfall/Runoff ........ YES
    RDII ................... NO
    Snowmelt ............... NO
    Groundwater ............ NO
    Flow Routing ........... YES
    Ponding Allowed ........ YES
    Water Quality .......... NO
  Infiltration Method ...... HORTON
  Flow Routing Method ...... DYNWAVE
  Surcharge Method ......... EXTRAN
  Starting Date ............ 08/28/2015 00:00:00
  Ending Date .............. 08/28/2015 23:40:00
  Antecedent Dry Days ...... 0.0
  Report Time Step ......... 00:01:00
  Wet Time Step ............ 00:01:00
  Dry Time Step ............ 00:01:00
  Routing Time Step ........ 5.00 sec
  Variable Time Step ....... YES
  Maximum Trials ........... 8
  Number of Threads ........ 1
  Head Tolerance ........... 0.001500 m
  
  
  **************************        Volume         Depth
  Runoff Quantity Continuity     hectare-m            mm
  **************************     ---------       -------
  Total Precipitation ......         3.282        18.213
  Evaporation Loss .........         0.000         0.000
  Infiltration Loss ........         0.000         0.000
  Surface Runoff ...........         3.260        18.091
  Final Storage ............         0.024         0.135
  Continuity Error (%) .....        -0.074
  
  
  **************************        Volume        Volume
  Flow Routing Continuity        hectare-m      10^6 ltr
  **************************     ---------     ---------
  Dry Weather Inflow .......         0.758         7.576
  Wet Weather Inflow .......         3.260        32.601
  Groundwater Inflow .......         0.000         0.000
  RDII Inflow ..............         0.000         0.000
  External Inflow ..........         0.000         0.000
  External Outflow .........         1.172        11.719
  Flooding Loss ............         1.913        19.130
  Evaporation Loss .........         0.000         0.000
  Exfiltration Loss ........         0.000         0.000
  Initial Stored Volume ....         0.000         0.000
  Final Stored Volume ......         0.746         7.458
  Continuity Error (%) .....         4.654
  
  
  *************************
  Highest Continuity Errors
  *************************
  Node T2 (34.11%)
  Node T4 (11.99%)
  Node T3 (10.06%)
  Node T5 (6.76%)
  Node J12 (5.70%)
  
  
  ***************************
  Time-Step Critical Elements
  ***************************
  None
  
  
  ********************************
  Highest Flow Instability Indexes
  ********************************
  Link C15 (1)
  Link C20 (1)
  
  
  *************************
  Routing Time Step Summary
  *************************
  Minimum Time Step           :     4.50 sec
  Average Time Step           :     5.00 sec
  Maximum Time Step           :     5.00 sec
  Percent in Steady State     :     0.00
  Average Iterations per Step :     2.28
  Percent Not Converging      :     0.28
  
  
  ***************************
  Subcatchment Runoff Summary
  ***************************
  
  ------------------------------------------------------------------------------------------------------------------------------
                            Total      Total      Total      Total     Imperv       Perv      Total       Total     Peak  Runoff
                           Precip      Runon       Evap      Infil     Runoff     Runoff     Runoff      Runoff   Runoff   Coeff
  Subcatchment                 mm         mm         mm         mm         mm         mm         mm    10^6 ltr      CMS
  ------------------------------------------------------------------------------------------------------------------------------
  SC01                      18.77       0.00       0.00       0.00      18.71       0.00      18.71        6.17     0.70   0.997
  SC02                       7.73       0.00       0.00       0.00       7.65       0.00       7.65        1.74     0.21   0.989
  SC03                      21.43       0.00       0.00       0.00      21.39       0.00      21.39        3.85     0.55   0.998
  SC04                       7.73       0.00       0.00       0.00       7.58       0.00       7.58        0.52     0.04   0.981
  SC05                      18.77       0.00       0.00       0.00      18.70       0.00      18.70        2.92     0.32   0.996
  SC06                      22.75       0.00       0.00       0.00      22.48       0.00      22.48        7.32     0.65   0.988
  SC07                       7.73       0.00       0.00       0.00       7.58       0.00       7.58        0.36     0.03   0.981
  SC08                      21.43       0.00       0.00       0.00      21.31       0.00      21.31        5.97     0.72   0.994
  SC09                      22.75       0.00       0.00       0.00      22.59       0.00      22.59        1.56     0.15   0.993
  SC010                     18.77       0.00       0.00       0.00      18.68       0.00      18.68        2.19     0.23   0.995
  
  
  ******************
  Node Depth Summary
  ******************
  
  ---------------------------------------------------------------------------------
                                 Average  Maximum  Maximum  Time of Max    Reported
                                   Depth    Depth      HGL   Occurrence   Max Depth
  Node                 Type       Meters   Meters   Meters  days hr:min      Meters
  ---------------------------------------------------------------------------------
  J1                   JUNCTION     0.06     0.19    34.19     0  14:26        0.19
  J3                   JUNCTION     0.08     0.13    18.13     0  20:02        0.13
  CSO7                 JUNCTION     0.07     0.15    34.15     0  11:41        0.15
  J5                   JUNCTION     0.04     0.10    32.10     0  11:42        0.10
  CSO9                 JUNCTION     0.19     2.00    42.00     0  13:30        2.00
  J8                   JUNCTION     0.10     0.29    36.29     0  14:12        0.29
  CSO8                 JUNCTION     0.18     2.00    34.00     0  13:20        2.00
  J10                  JUNCTION     0.08     0.30    29.30     0  14:17        0.29
  J13                  JUNCTION     0.04     0.13    29.13     0  11:37        0.12
  J15                  JUNCTION     0.13     0.33    15.33     0  14:28        0.33
  J16                  JUNCTION     0.06     0.20    30.20     0  14:26        0.20
  CSO10                JUNCTION     0.11     1.00    31.00     0  14:06        1.00
  J12                  JUNCTION     0.48     1.07    27.07     0  13:51        1.06
  J4                   JUNCTION     0.08     0.18    33.18     0  11:44        0.18
  J6                   JUNCTION     0.05     0.07    25.07     0  16:40        0.07
  J2                   JUNCTION     0.05     0.08    25.08     0  14:03        0.08
  J19                  JUNCTION     0.11     0.17     8.17     0  12:45        0.17
  J9                   JUNCTION     0.08     0.11    29.11     0  15:00        0.11
  J14                  JUNCTION     0.07     0.15    20.15     0  20:00        0.15
  J17                  JUNCTION     0.04     0.05    20.05     0  18:37        0.05
  J7                   JUNCTION     0.08     0.23    39.23     0  14:18        0.23
  J11                  JUNCTION     0.08     0.30    31.30     0  14:32        0.30
  J18                  JUNCTION     0.05     0.16    29.16     0  14:28        0.16
  Out_to_WWTP          OUTFALL      0.11     0.17     6.17     0  16:52        0.17
  T5                   STORAGE      2.31     5.00    32.00     0  13:17        5.00
  T4                   STORAGE      1.96     4.41    31.41     0  16:28        4.41
  T6                   STORAGE      2.56     5.00    36.00     0  12:34        5.00
  T3                   STORAGE      2.53     5.00    27.00     0  13:49        5.00
  T2                   STORAGE      2.36     5.00    26.00     0  17:15        5.00
  T1                   STORAGE      2.06     5.00    15.00     0  12:43        5.00
  
  
  *******************
  Node Inflow Summary
  *******************
  
  -------------------------------------------------------------------------------------------------
                                  Maximum  Maximum                  Lateral       Total        Flow
                                  Lateral    Total  Time of Max      Inflow      Inflow     Balance
                                   Inflow   Inflow   Occurrence      Volume      Volume       Error
  Node                 Type           CMS      CMS  days hr:min    10^6 ltr    10^6 ltr     Percent
  -------------------------------------------------------------------------------------------------
  J1                   JUNCTION     0.342    0.342     0  14:26        4.01        4.01      -0.021
  J3                   JUNCTION     0.000    0.182     0  20:00           0        6.13       0.425
  CSO7                 JUNCTION     0.041    0.041     0  11:36       0.925       0.925       0.013
  J5                   JUNCTION     0.047    0.083     0  11:41       0.771         1.7       0.006
  CSO9                 JUNCTION     0.156    0.156     0  14:11        1.94        1.94      -0.002
  J8                   JUNCTION     0.681    0.805     0  14:11        9.15        11.1       0.013
  CSO8                 JUNCTION     0.726    0.726     0  14:16        6.41        6.41      -0.006
  J10                  JUNCTION     0.563    1.046     0  14:16         4.6        10.9      -0.079
  J13                  JUNCTION     0.228    0.228     0  11:36        2.65        2.65      -0.121
  J15                  JUNCTION     0.000    0.995     0  14:26           0        16.5       0.343
  J16                  JUNCTION     0.714    0.714     0  14:26        7.25        7.25      -0.028
  CSO10                JUNCTION     0.239    0.239     0  14:26        2.47        2.47      -0.013
  J12                  JUNCTION     0.000    1.025     0  14:17           0        14.5       6.050
  J4                   JUNCTION     0.000    0.040     0  11:41           0       0.925       0.124
  J6                   JUNCTION     0.000    0.026     0  16:30           0        1.22       0.272
  J2                   JUNCTION     0.000    0.039     0  13:17           0        1.88       0.239
  J19                  JUNCTION     0.000    0.271     0  12:43           0        11.7       0.071
  J9                   JUNCTION     0.000    0.075     0  12:34           0        3.64       0.398
  J14                  JUNCTION     0.000    0.123     0  20:00           0        3.04       0.144
  J17                  JUNCTION     0.000    0.015     0  17:15           0       0.733       0.512
  J7                   JUNCTION     0.000    0.127     0  14:18           0        1.93       0.064
  J11                  JUNCTION     0.000    0.486     0  14:32           0        6.26       0.037
  J18                  JUNCTION     0.000    0.202     0  14:28           0        2.46      -0.002
  Out_to_WWTP          OUTFALL      0.000    0.271     0  12:45           0        11.7       0.000
  T5                   STORAGE      0.000    0.320     0  14:26           0        4.01       7.251
  T4                   STORAGE      0.000    0.081     0  11:43           0         1.7      13.617
  T6                   STORAGE      0.000    0.768     0  14:12           0        11.1       5.750
  T3                   STORAGE      0.000    1.301     0  13:54           0        13.7      11.188
  T2                   STORAGE      0.000    0.209     0  11:37           0        2.65      51.764
  T1                   STORAGE      0.000    0.937     0  14:28           0        16.5       1.808
  
  
  **********************
  Node Surcharge Summary
  **********************
  
  Surcharging occurs when water rises above the top of the highest conduit.
  ---------------------------------------------------------------------
                                               Max. Height   Min. Depth
                                   Hours       Above Crown    Below Rim
  Node                 Type      Surcharged         Meters       Meters
  ---------------------------------------------------------------------
  CSO9                 JUNCTION        2.05          1.682        0.000
  CSO8                 JUNCTION        1.60          1.547        0.000
  CSO10                JUNCTION        0.51          0.560        0.000
  
  
  *********************
  Node Flooding Summary
  *********************
  
  Flooding refers to all water that overflows a node, whether it ponds or not.
  --------------------------------------------------------------------------
                                                             Total   Maximum
                                 Maximum   Time of Max       Flood    Ponded
                        Hours       Rate    Occurrence      Volume     Depth
  Node                 Flooded       CMS   days hr:min    10^6 ltr    Meters
  --------------------------------------------------------------------------
  CSO9                    0.40     0.029      0  14:11       0.013     0.000
  CSO8                    0.58     0.240      0  14:16       0.155     0.000
  CSO10                   0.19     0.037      0  14:26       0.011     0.000
  T5                      4.35     0.280      0  14:26       1.590     0.000
  T6                      5.75     0.693      0  14:12       6.412     0.000
  T3                      8.65     1.241      0  13:54       6.654     0.000
  T2                      2.64     0.024      0  17:17       0.060     0.000
  T1                      4.19     0.666      0  14:28       4.236     0.000
  
  
  **********************
  Storage Volume Summary
  **********************
  
  --------------------------------------------------------------------------------------------------
                         Average     Avg  Evap Exfil       Maximum     Max    Time of Max    Maximum
                          Volume    Pcnt  Pcnt  Pcnt        Volume    Pcnt     Occurrence    Outflow
  Storage Unit           1000 m3    Full  Loss  Loss       1000 m3    Full    days hr:min        CMS
  --------------------------------------------------------------------------------------------------
  T5                       0.231      46     0     0         0.500     100       0  13:17      0.039
  T4                       0.196      39     0     0         0.441      88       0  16:28      0.026
  T6                       0.308      51     0     0         0.600     100       0  12:34      0.075
  T3                       1.314      51     0     0         2.600     100       0  13:49      0.123
  T2                       0.471      47     0     0         1.000     100       0  17:15      0.015
  T1                       0.288      41     0     0         0.700     100       0  12:43      0.271
  
  
  ***********************
  Outfall Loading Summary
  ***********************
  
  -----------------------------------------------------------
                         Flow       Avg       Max       Total
                         Freq      Flow      Flow      Volume
  Outfall Node           Pcnt       CMS       CMS    10^6 ltr
  -----------------------------------------------------------
  Out_to_WWTP           99.43     0.138     0.271      11.719
  -----------------------------------------------------------
  System                99.43     0.138     0.271      11.719
  
  
  ********************
  Link Flow Summary
  ********************
  
  -----------------------------------------------------------------------------
                                 Maximum  Time of Max   Maximum    Max/    Max/
                                  |Flow|   Occurrence   |Veloc|    Full    Full
  Link                 Type          CMS  days hr:min     m/sec    Flow   Depth
  -----------------------------------------------------------------------------
  C1                   CONDUIT     0.039     0  14:03      1.06    0.01    0.10
  C6                   CONDUIT     0.038     0  11:44      1.18    0.60    0.47
  C2                   CONDUIT     0.026     0  16:40      0.96    0.03    0.17
  C9                   CONDUIT     0.126     0  14:18      1.27    0.43    0.51
  C16                  CONDUIT     0.491     0  14:17      1.78    0.05    0.15
  C3                   CONDUIT     0.121     0  20:00      1.81    0.05    0.14
  C19                  CONDUIT     0.015     0  18:23      0.43    0.01    0.19
  C11                  CONDUIT     0.174     0  20:02      1.77    0.01    0.11
  C20                  CONDUIT     0.662     0  14:26      2.79    0.02    0.13
  C22                  CONDUIT     0.200     0  14:28      1.55    0.09    0.31
  C12                  CONDUIT     0.075     0  15:00      0.74    0.01    0.29
  C17                  CONDUIT     0.950     0  14:17      2.46    0.05    0.33
  C10                  CONDUIT     0.768     0  14:12      0.94    0.08    0.60
  C13                  CONDUIT     1.301     0  13:54      0.85    0.08    0.77
  C18                  CONDUIT     0.209     0  11:37      1.01    0.01    0.53
  C23                  CONDUIT     0.937     0  14:28      0.84    0.10    0.61
  C4                   CONDUIT     0.320     0  14:26      1.13    0.08    0.59
  C7                   CONDUIT     0.081     0  11:43      0.83    0.02    0.55
  C14                  CONDUIT     0.271     0  12:45      2.08    0.02    0.09
  C5                   CONDUIT     0.040     0  11:41      1.16    0.68    0.65
  C8                   CONDUIT     0.127     0  14:18      1.78    1.60    0.86
  C15                  CONDUIT     0.486     0  14:32      3.48    1.55    0.83
  C21                  CONDUIT     0.202     0  14:28      1.85    1.16    0.68
  V4                   ORIFICE     0.026     0  16:30                      0.35
  V5                   ORIFICE     0.039     0  13:17                      1.00
  V1                   ORIFICE     0.271     0  12:43                      1.00
  V6                   ORIFICE     0.075     0  12:34                      0.43
  V3                   ORIFICE     0.123     0  20:00                      0.65
  V2                   ORIFICE     0.015     0  17:15                      0.11
  
  
  ***************************
  Flow Classification Summary
  ***************************
  
  -------------------------------------------------------------------------------------
                      Adjusted    ---------- Fraction of Time in Flow Class ---------- 
                       /Actual         Up    Down  Sub   Sup   Up    Down  Norm  Inlet 
  Conduit               Length    Dry  Dry   Dry   Crit  Crit  Crit  Crit  Ltd   Ctrl  
  -------------------------------------------------------------------------------------
  C1                      1.00   0.00  0.00  0.00  0.04  0.96  0.00  0.00  0.96  0.00
  C6                      1.00   0.00  0.00  0.00  0.01  0.99  0.00  0.00  0.00  0.00
  C2                      1.00   0.00  0.00  0.00  0.15  0.85  0.00  0.00  0.97  0.00
  C9                      1.00   0.00  0.00  0.00  1.00  0.00  0.00  0.00  1.00  0.00
  C16                     1.00   0.00  0.25  0.00  0.42  0.32  0.00  0.00  0.38  0.00
  C3                      1.00   0.00  0.00  0.00  0.03  0.96  0.00  0.00  0.99  0.00
  C19                     1.00   0.00  0.00  0.00  1.00  0.00  0.00  0.00  1.00  0.00
  C11                     1.00   0.00  0.00  0.00  0.26  0.74  0.00  0.00  1.00  0.00
  C20                     1.00   0.00  0.00  0.00  0.60  0.40  0.00  0.00  0.99  0.00
  C22                     1.00   0.00  0.00  0.00  0.80  0.20  0.00  0.00  1.00  0.00
  C12                     1.00   0.00  0.00  0.00  0.72  0.28  0.00  0.00  0.96  0.00
  C17                     1.00   0.00  0.00  0.00  0.67  0.33  0.00  0.00  0.99  0.00
  C10                     1.00   0.00  0.00  0.00  0.83  0.17  0.00  0.00  0.98  0.00
  C13                     1.00   0.00  0.00  0.00  0.88  0.12  0.00  0.00  0.49  0.00
  C18                     1.00   0.00  0.00  0.00  0.96  0.04  0.00  0.00  0.98  0.00
  C23                     1.00   0.00  0.00  0.00  0.76  0.24  0.00  0.00  0.96  0.00
  C4                      1.00   0.00  0.00  0.00  0.82  0.18  0.00  0.00  0.98  0.00
  C7                      1.00   0.00  0.00  0.00  0.85  0.15  0.00  0.00  0.97  0.00
  C14                     1.00   0.00  0.00  0.00  0.00  1.00  0.00  0.00  0.34  0.00
  C5                      1.00   0.00  0.00  0.00  0.95  0.05  0.00  0.00  0.99  0.00
  C8                      1.00   0.00  0.00  0.00  0.32  0.68  0.00  0.00  0.00  0.00
  C15                     1.00   0.25  0.00  0.00  0.00  0.75  0.00  0.00  0.00  0.00
  C21                     1.00   0.00  0.00  0.00  0.01  0.99  0.00  0.00  0.00  0.00
  
  
  *************************
  Conduit Surcharge Summary
  *************************
  
  ----------------------------------------------------------------------------
                                                           Hours        Hours 
                         --------- Hours Full --------   Above Full   Capacity
  Conduit                Both Ends  Upstream  Dnstream   Normal Flow   Limited
  ----------------------------------------------------------------------------
  C10                         0.01      0.01     12.37      0.01         0.01
  C13                         0.01      0.01     11.76      0.01         0.01
  C18                         0.01      0.01     11.40      0.01         0.01
  C23                         0.01      0.01     12.06      0.01         0.01
  C4                          0.01      0.01     12.40      0.01         0.01
  C7                          0.01      0.01     12.18      0.01         0.01
  C8                          0.01      2.05      0.01      2.06         0.01
  C15                         0.01      1.60      0.01      1.67         0.01
  C21                         0.01      0.52      0.01      0.44         0.01
  

  Analysis begun on:  Tue Sep 21 00:19:43 2021
  Analysis ended on:  Tue Sep 21 00:19:44 2021
  Total elapsed time: 00:00:01