
  EPA STORM WATER MANAGEMENT MODEL - VERSION 5.1 (Build 5.3.0.dev0)
  --------------------------------------------------------------

  WARNING 09: time series interval greater than recording interval for Rain Gage RG1
  WARNING 09: time series interval greater than recording interval for Rain Gage RG2
  WARNING 09: time series interval greater than recording interval for Rain Gage RG3
  WARNING 09: time series interval greater than recording interval for Rain Gage RG4
  
  *********************************************************
  NOTE: The summary statistics displayed in this report are
  based on results found at every computational time step,  
  not just on results from each reporting time step.
  *********************************************************
  
  ****************
  Analysis Options
  ****************
  Flow Units ............... CMS
  Process Models:
    Rainfall/Runoff ........ YES
    RDII ................... NO
    Snowmelt ............... NO
    Groundwater ............ NO
    Flow Routing ........... YES
    Ponding Allowed ........ YES
    Water Quality .......... NO
  Infiltration Method ...... HORTON
  Flow Routing Method ...... DYNWAVE
  Surcharge Method ......... EXTRAN
  Starting Date ............ 08/28/2015 00:00:00
  Ending Date .............. 08/28/2015 23:40:00
  Antecedent Dry Days ...... 0.0
  Report Time Step ......... 00:01:00
  Wet Time Step ............ 00:01:00
  Dry Time Step ............ 00:01:00
  Routing Time Step ........ 5.00 sec
  Variable Time Step ....... YES
  Maximum Trials ........... 8
  Number of Threads ........ 1
  Head Tolerance ........... 0.001500 m
  
  
  **************************        Volume         Depth
  Runoff Quantity Continuity     hectare-m            mm
  **************************     ---------       -------
  Total Precipitation ......         1.805        10.014
  Evaporation Loss .........         0.000         0.000
  Infiltration Loss ........         0.000         0.000
  Surface Runoff ...........         1.770         9.822
  Final Storage ............         0.040         0.220
  Continuity Error (%) .....        -0.271
  
  
  **************************        Volume        Volume
  Flow Routing Continuity        hectare-m      10^6 ltr
  **************************     ---------     ---------
  Dry Weather Inflow .......         0.758         7.576
  Wet Weather Inflow .......         1.770        17.698
  Groundwater Inflow .......         0.000         0.000
  RDII Inflow ..............         0.000         0.000
  External Inflow ..........         0.000         0.000
  External Outflow .........         0.884         8.838
  Flooding Loss ............         0.561         5.613
  Evaporation Loss .........         0.000         0.000
  Exfiltration Loss ........         0.000         0.000
  Initial Stored Volume ....         0.000         0.000
  Final Stored Volume ......         0.822         8.222
  Continuity Error (%) .....        10.286
  
  
  *************************
  Highest Continuity Errors
  *************************
  Node T2 (23.64%)
  Node T3 (17.49%)
  Node T5 (16.45%)
  Node T6 (14.44%)
  Node T4 (14.27%)
  
  
  ***************************
  Time-Step Critical Elements
  ***************************
  None
  
  
  ********************************
  Highest Flow Instability Indexes
  ********************************
  All links are stable.
  
  
  *************************
  Routing Time Step Summary
  *************************
  Minimum Time Step           :     4.50 sec
  Average Time Step           :     5.00 sec
  Maximum Time Step           :     5.00 sec
  Percent in Steady State     :     0.00
  Average Iterations per Step :     2.10
  Percent Not Converging      :     0.17
  
  
  ***************************
  Subcatchment Runoff Summary
  ***************************
  
  ------------------------------------------------------------------------------------------------------------------------------
                            Total      Total      Total      Total     Imperv       Perv      Total       Total     Peak  Runoff
                           Precip      Runon       Evap      Infil     Runoff     Runoff     Runoff      Runoff   Runoff   Coeff
  Subcatchment                 mm         mm         mm         mm         mm         mm         mm    10^6 ltr      CMS
  ------------------------------------------------------------------------------------------------------------------------------
  SC01                       9.33       0.00       0.00       0.00       9.22       0.00       9.22        3.04     1.98   0.988
  SC02                      13.46       0.00       0.00       0.00      13.37       0.00      13.37        3.04     1.55   0.993
  SC03                      10.08       0.00       0.00       0.00      10.03       0.00      10.03        1.81     0.86   0.995
  SC04                      13.46       0.00       0.00       0.00      13.14       0.00      13.14        0.91     0.22   0.976
  SC05                       9.33       0.00       0.00       0.00       9.20       0.00       9.20        1.43     0.88   0.986
  SC06                       7.98       0.00       0.00       0.00       7.56       0.00       7.56        2.46     0.64   0.948
  SC07                      13.46       0.00       0.00       0.00      13.14       0.00      13.14        0.62     0.15   0.976
  SC08                      10.08       0.00       0.00       0.00       9.91       0.00       9.91        2.77     0.83   0.983
  SC09                       7.98       0.00       0.00       0.00       7.75       0.00       7.75        0.53     0.22   0.971
  SC010                      9.33       0.00       0.00       0.00       9.14       0.00       9.14        1.07     0.56   0.979
  
  
  ******************
  Node Depth Summary
  ******************
  
  ---------------------------------------------------------------------------------
                                 Average  Maximum  Maximum  Time of Max    Reported
                                   Depth    Depth      HGL   Occurrence   Max Depth
  Node                 Type       Meters   Meters   Meters  days hr:min      Meters
  ---------------------------------------------------------------------------------
  J1                   JUNCTION     0.05     0.30    34.30     0  21:01        0.30
  J3                   JUNCTION     0.07     0.11    18.11     0  21:48        0.11
  CSO7                 JUNCTION     0.09     1.20    35.20     0  11:55        1.20
  J5                   JUNCTION     0.05     0.17    32.17     0  11:58        0.17
  CSO9                 JUNCTION     0.09     2.00    42.00     0  16:50        2.00
  J8                   JUNCTION     0.07     0.27    36.27     0  16:56        0.27
  CSO8                 JUNCTION     0.13     2.00    34.00     0  19:50        2.00
  J10                  JUNCTION     0.06     0.31    29.31     0  20:22        0.31
  J13                  JUNCTION     0.05     0.31    29.31     0  11:56        0.31
  J15                  JUNCTION     0.11     0.44    15.44     0  21:04        0.44
  J16                  JUNCTION     0.04     0.32    30.32     0  21:01        0.32
  CSO10                JUNCTION     0.08     1.00    31.00     0  20:55        1.00
  J12                  JUNCTION     0.20     1.09    27.09     0  20:48        1.09
  J4                   JUNCTION     0.10     1.42    34.42     0  11:59        0.75
  J6                   JUNCTION     0.05     0.07    25.07     0  20:50        0.07
  J2                   JUNCTION     0.05     0.08    25.08     0  21:57        0.08
  J19                  JUNCTION     0.10     0.17     8.17     0  21:11        0.17
  J9                   JUNCTION     0.07     0.11    29.11     0  19:00        0.11
  J14                  JUNCTION     0.07     0.10    20.10     0  21:04        0.10
  J17                  JUNCTION     0.04     0.05    20.05     0  19:07        0.05
  J7                   JUNCTION     0.06     0.23    39.23     0  17:00        0.23
  J11                  JUNCTION     0.06     0.30    31.30     0  20:34        0.30
  J18                  JUNCTION     0.03     0.16    29.16     0  21:18        0.16
  Out_to_WWTP          OUTFALL      0.10     0.17     6.17     0  22:03        0.17
  T5                   STORAGE      1.40     5.00    32.00     0  21:15        5.00
  T4                   STORAGE      2.03     5.00    32.00     0  20:07        5.00
  T6                   STORAGE      1.86     5.00    36.00     0  17:30        5.00
  T3                   STORAGE      1.52     5.00    27.00     0  20:43        5.00
  T2                   STORAGE      2.26     5.00    26.00     0  18:01        5.00
  T1                   STORAGE      1.18     5.00    15.00     0  21:09        5.00
  
  
  *******************
  Node Inflow Summary
  *******************
  
  -------------------------------------------------------------------------------------------------
                                  Maximum  Maximum                  Lateral       Total        Flow
                                  Lateral    Total  Time of Max      Inflow      Inflow     Balance
                                   Inflow   Inflow   Occurrence      Volume      Volume       Error
  Node                 Type           CMS      CMS  days hr:min    10^6 ltr    10^6 ltr     Percent
  -------------------------------------------------------------------------------------------------
  J1                   JUNCTION     0.889    0.889     0  21:01        2.53        2.53       0.004
  J3                   JUNCTION     0.000    0.127     0  21:48           0        5.05       0.557
  CSO7                 JUNCTION     0.164    0.164     0  11:56        1.19        1.19       0.019
  J5                   JUNCTION     0.225    0.263     0  11:56        1.15        2.31       0.058
  CSO9                 JUNCTION     0.224    0.224     0  16:51       0.916       0.916       0.001
  J8                   JUNCTION     0.668    0.732     0  16:51        4.29        5.18       0.087
  CSO8                 JUNCTION     0.828    0.828     0  20:21        3.22        3.22      -0.037
  J10                  JUNCTION     0.868    1.203     0  20:21        2.56        5.55      -0.185
  J13                  JUNCTION     1.567    1.567     0  11:56        3.95        3.95      -0.123
  J15                  JUNCTION     0.000    2.139     0  21:01           0          11       0.593
  J16                  JUNCTION     1.993    1.993     0  21:01        4.12        4.12      -0.079
  CSO10                JUNCTION     0.561    0.561     0  21:01        1.34        1.34      -0.034
  J12                  JUNCTION     0.000    1.145     0  20:22           0        8.66      10.600
  J4                   JUNCTION     0.000    0.085     0  11:57           0        1.15       0.065
  J6                   JUNCTION     0.000    0.028     0  20:07           0        1.25       0.316
  J2                   JUNCTION     0.000    0.039     0  21:16           0        1.48       0.363
  J19                  JUNCTION     0.000    0.271     0  21:09           0        8.85       0.126
  J9                   JUNCTION     0.000    0.075     0  17:30           0         3.1       0.497
  J14                  JUNCTION     0.000    0.060     0  20:43           0        2.34       0.188
  J17                  JUNCTION     0.000    0.015     0  18:01           0       0.717       0.497
  J7                   JUNCTION     0.000    0.127     0  16:59           0       0.891       0.213
  J11                  JUNCTION     0.000    0.486     0  20:34           0           3       0.214
  J18                  JUNCTION     0.000    0.202     0  21:18           0        1.18       0.095
  Out_to_WWTP          OUTFALL      0.000    0.271     0  21:11           0        8.84       0.000
  T5                   STORAGE      0.000    0.811     0  21:01           0        2.53      19.691
  T4                   STORAGE      0.000    0.249     0  11:58           0         2.3      16.647
  T6                   STORAGE      0.000    0.680     0  16:56           0        5.18      16.873
  T3                   STORAGE      0.000    1.516     0  20:51           0        7.83      21.195
  T2                   STORAGE      0.000    1.413     0  11:56           0        3.96      30.951
  T1                   STORAGE      0.000    1.673     0  21:04           0          11       5.615
  
  
  **********************
  Node Surcharge Summary
  **********************
  
  Surcharging occurs when water rises above the top of the highest conduit.
  ---------------------------------------------------------------------
                                               Max. Height   Min. Depth
                                   Hours       Above Crown    Below Rim
  Node                 Type      Surcharged         Meters       Meters
  ---------------------------------------------------------------------
  CSO7                 JUNCTION        0.57          0.945        0.000
  CSO9                 JUNCTION        0.32          1.682        0.000
  CSO8                 JUNCTION        1.01          1.547        0.000
  CSO10                JUNCTION        0.46          0.560        0.000
  J4                   JUNCTION        0.37          1.124        0.576
  
  
  *********************
  Node Flooding Summary
  *********************
  
  Flooding refers to all water that overflows a node, whether it ponds or not.
  --------------------------------------------------------------------------
                                                             Total   Maximum
                                 Maximum   Time of Max       Flood    Ponded
                        Hours       Rate    Occurrence      Volume     Depth
  Node                 Flooded       CMS   days hr:min    10^6 ltr    Meters
  --------------------------------------------------------------------------
  CSO7                    0.30     0.084      0  11:56       0.037     0.000
  CSO9                    0.16     0.104      0  16:51       0.025     0.000
  CSO8                    0.67     0.342      0  20:21       0.227     0.000
  CSO10                   0.38     0.359      0  21:01       0.163     0.000
  T5                      0.69     0.293      0  21:16       0.208     0.000
  T4                      1.92     0.081      0  21:02       0.279     0.000
  T6                      2.50     0.225      0  21:07       0.800     0.000
  T3                      2.36     1.456      0  20:51       1.504     0.000
  T2                      4.40     0.591      0  19:32       1.318     0.000
  T1                      0.76     1.168      0  21:09       1.052     0.000
  
  
  **********************
  Storage Volume Summary
  **********************
  
  --------------------------------------------------------------------------------------------------
                         Average     Avg  Evap Exfil       Maximum     Max    Time of Max    Maximum
                          Volume    Pcnt  Pcnt  Pcnt        Volume    Pcnt     Occurrence    Outflow
  Storage Unit           1000 m3    Full  Loss  Loss       1000 m3    Full    days hr:min        CMS
  --------------------------------------------------------------------------------------------------
  T5                       0.140      28     0     0         0.500     100       0  21:15      0.039
  T4                       0.203      41     0     0         0.500     100       0  20:07      0.028
  T6                       0.224      37     0     0         0.600     100       0  17:30      0.075
  T3                       0.789      30     0     0         2.600     100       0  20:43      0.182
  T2                       0.451      45     0     0         1.000     100       0  18:01      0.015
  T1                       0.165      24     0     0         0.700     100       0  21:09      0.271
  
  
  ***********************
  Outfall Loading Summary
  ***********************
  
  -----------------------------------------------------------
                         Flow       Avg       Max       Total
                         Freq      Flow      Flow      Volume
  Outfall Node           Pcnt       CMS       CMS    10^6 ltr
  -----------------------------------------------------------
  Out_to_WWTP           99.43     0.104     0.271       8.838
  -----------------------------------------------------------
  System                99.43     0.104     0.271       8.838
  
  
  ********************
  Link Flow Summary
  ********************
  
  -----------------------------------------------------------------------------
                                 Maximum  Time of Max   Maximum    Max/    Max/
                                  |Flow|   Occurrence   |Veloc|    Full    Full
  Link                 Type          CMS  days hr:min     m/sec    Flow   Depth
  -----------------------------------------------------------------------------
  C1                   CONDUIT     0.039     0  21:57      1.02    0.01    0.10
  C6                   CONDUIT     0.072     0  12:00      1.29    1.14    0.78
  C2                   CONDUIT     0.028     0  20:48      1.11    0.03    0.16
  C9                   CONDUIT     0.125     0  17:00      1.33    0.43    0.49
  C16                  CONDUIT     0.488     0  20:47      1.78    0.05    0.15
  C3                   CONDUIT     0.060     0  21:04      1.35    0.02    0.11
  C19                  CONDUIT     0.015     0  19:07      0.45    0.01    0.24
  C11                  CONDUIT     0.127     0  21:48      1.54    0.01    0.14
  C20                  CONDUIT     1.807     0  21:01      4.85    0.06    0.18
  C22                  CONDUIT     0.202     0  21:19      1.51    0.09    0.38
  C12                  CONDUIT     0.075     0  22:05      1.13    0.01    0.30
  C17                  CONDUIT     1.070     0  20:22      3.51    0.05    0.34
  C10                  CONDUIT     0.680     0  16:56      0.94    0.07    0.59
  C13                  CONDUIT     1.516     0  20:51      0.85    0.09    0.77
  C18                  CONDUIT     1.413     0  11:56      1.44    0.05    0.55
  C23                  CONDUIT     1.673     0  21:04      1.39    0.18    0.65
  C4                   CONDUIT     0.811     0  21:01      1.50    0.20    0.65
  C7                   CONDUIT     0.249     0  11:58      0.83    0.06    0.58
  C14                  CONDUIT     0.271     0  21:11      2.08    0.02    0.09
  C5                   CONDUIT     0.085     0  11:57      1.69    1.46    1.00
  C8                   CONDUIT     0.127     0  16:59      1.88    1.60    0.86
  C15                  CONDUIT     0.486     0  20:34      3.95    1.55    0.83
  C21                  CONDUIT     0.202     0  21:18      1.88    1.16    0.69
  V4                   ORIFICE     0.028     0  20:07                      0.35
  V5                   ORIFICE     0.039     0  21:16                      1.00
  V1                   ORIFICE     0.271     0  21:09                      1.00
  V6                   ORIFICE     0.075     0  17:30                      0.43
  V3                   ORIFICE     0.060     0  20:43                      0.32
  V2                   ORIFICE     0.015     0  18:01                      0.11
  
  
  ***************************
  Flow Classification Summary
  ***************************
  
  -------------------------------------------------------------------------------------
                      Adjusted    ---------- Fraction of Time in Flow Class ---------- 
                       /Actual         Up    Down  Sub   Sup   Up    Down  Norm  Inlet 
  Conduit               Length    Dry  Dry   Dry   Crit  Crit  Crit  Crit  Ltd   Ctrl  
  -------------------------------------------------------------------------------------
  C1                      1.00   0.00  0.00  0.00  0.03  0.97  0.00  0.00  0.96  0.00
  C6                      1.00   0.00  0.00  0.00  0.04  0.96  0.00  0.00  0.00  0.00
  C2                      1.00   0.00  0.00  0.00  0.12  0.88  0.00  0.00  0.97  0.00
  C9                      1.00   0.00  0.00  0.00  1.00  0.00  0.00  0.00  1.00  0.00
  C16                     1.00   0.00  0.19  0.00  0.59  0.23  0.00  0.00  0.50  0.00
  C3                      1.00   0.00  0.00  0.00  0.03  0.96  0.00  0.00  1.00  0.00
  C19                     1.00   0.00  0.00  0.00  1.00  0.00  0.00  0.00  1.00  0.00
  C11                     1.00   0.00  0.00  0.00  0.10  0.90  0.00  0.00  1.00  0.00
  C20                     1.00   0.00  0.00  0.00  0.79  0.21  0.00  0.00  0.99  0.00
  C22                     1.00   0.00  0.00  0.00  0.97  0.03  0.00  0.00  1.00  0.00
  C12                     1.00   0.00  0.00  0.00  0.46  0.54  0.00  0.00  0.88  0.00
  C17                     1.00   0.00  0.00  0.00  0.54  0.46  0.00  0.00  0.98  0.00
  C10                     1.00   0.00  0.00  0.00  0.85  0.15  0.00  0.00  0.98  0.00
  C13                     1.00   0.00  0.00  0.00  0.88  0.12  0.00  0.00  0.79  0.00
  C18                     1.00   0.00  0.00  0.00  0.96  0.04  0.00  0.00  0.98  0.00
  C23                     1.00   0.00  0.00  0.00  0.76  0.24  0.00  0.00  0.96  0.00
  C4                      1.00   0.00  0.00  0.00  0.82  0.18  0.00  0.00  0.98  0.00
  C7                      1.00   0.00  0.00  0.00  0.84  0.16  0.00  0.00  0.97  0.00
  C14                     1.00   0.00  0.00  0.00  0.00  1.00  0.00  0.00  0.49  0.00
  C5                      1.00   0.00  0.00  0.00  0.94  0.06  0.00  0.00  0.95  0.00
  C8                      1.00   0.00  0.00  0.00  0.18  0.82  0.00  0.00  0.00  0.00
  C15                     1.00   0.19  0.00  0.00  0.00  0.81  0.00  0.00  0.00  0.00
  C21                     1.00   0.00  0.00  0.00  0.00  1.00  0.00  0.00  0.00  0.00
  
  
  *************************
  Conduit Surcharge Summary
  *************************
  
  ----------------------------------------------------------------------------
                                                           Hours        Hours 
                         --------- Hours Full --------   Above Full   Capacity
  Conduit                Both Ends  Upstream  Dnstream   Normal Flow   Limited
  ----------------------------------------------------------------------------
  C6                          0.01      0.37      0.01      0.27         0.01
  C10                         0.01      0.01      8.50      0.01         0.01
  C13                         0.01      0.01      6.13      0.01         0.01
  C18                         0.01      0.01     11.62      0.01         0.01
  C23                         0.01      0.01      8.18      0.01         0.01
  C4                          0.01      0.01     11.45      0.01         0.01
  C7                          0.01      0.01     11.69      0.01         0.01
  C5                          0.47      0.57      0.64      0.54         0.42
  C8                          0.01      0.32      0.01      0.33         0.01
  C15                         0.01      1.01      0.01      1.04         0.01
  C21                         0.01      0.46      0.01      0.44         0.01
  

  Analysis begun on:  Tue Sep 21 00:21:10 2021
  Analysis ended on:  Tue Sep 21 00:21:10 2021
  Total elapsed time: < 1 sec