
  EPA STORM WATER MANAGEMENT MODEL - VERSION 5.1 (Build 5.3.0.dev0)
  --------------------------------------------------------------

  WARNING 09: time series interval greater than recording interval for Rain Gage RG1
  WARNING 09: time series interval greater than recording interval for Rain Gage RG2
  WARNING 09: time series interval greater than recording interval for Rain Gage RG3
  WARNING 09: time series interval greater than recording interval for Rain Gage RG4
  
  *********************************************************
  NOTE: The summary statistics displayed in this report are
  based on results found at every computational time step,  
  not just on results from each reporting time step.
  *********************************************************
  
  ****************
  Analysis Options
  ****************
  Flow Units ............... CMS
  Process Models:
    Rainfall/Runoff ........ YES
    RDII ................... NO
    Snowmelt ............... NO
    Groundwater ............ NO
    Flow Routing ........... YES
    Ponding Allowed ........ YES
    Water Quality .......... NO
  Infiltration Method ...... HORTON
  Flow Routing Method ...... DYNWAVE
  Surcharge Method ......... EXTRAN
  Starting Date ............ 08/28/2015 00:00:00
  Ending Date .............. 08/28/2015 23:40:00
  Antecedent Dry Days ...... 0.0
  Report Time Step ......... 00:01:00
  Wet Time Step ............ 00:01:00
  Dry Time Step ............ 00:01:00
  Routing Time Step ........ 5.00 sec
  Variable Time Step ....... YES
  Maximum Trials ........... 8
  Number of Threads ........ 1
  Head Tolerance ........... 0.001500 m
  
  
  **************************        Volume         Depth
  Runoff Quantity Continuity     hectare-m            mm
  **************************     ---------       -------
  Total Precipitation ......         2.136        11.853
  Evaporation Loss .........         0.000         0.000
  Infiltration Loss ........         0.000         0.000
  Surface Runoff ...........         2.129        11.812
  Final Storage ............         0.018         0.099
  Continuity Error (%) .....        -0.486
  
  
  **************************        Volume        Volume
  Flow Routing Continuity        hectare-m      10^6 ltr
  **************************     ---------     ---------
  Dry Weather Inflow .......         0.758         7.576
  Wet Weather Inflow .......         2.128        21.285
  Groundwater Inflow .......         0.000         0.000
  RDII Inflow ..............         0.000         0.000
  External Inflow ..........         0.000         0.000
  External Outflow .........         1.027        10.267
  Flooding Loss ............         0.986         9.864
  Evaporation Loss .........         0.000         0.000
  Exfiltration Loss ........         0.000         0.000
  Initial Stored Volume ....         0.000         0.000
  Final Stored Volume ......         0.720         7.197
  Continuity Error (%) .....         5.311
  
  
  *************************
  Highest Continuity Errors
  *************************
  Node T2 (35.14%)
  Node T3 (15.12%)
  Node T4 (12.31%)
  Node J12 (8.34%)
  Node T6 (7.91%)
  
  
  ***************************
  Time-Step Critical Elements
  ***************************
  None
  
  
  ********************************
  Highest Flow Instability Indexes
  ********************************
  All links are stable.
  
  
  *************************
  Routing Time Step Summary
  *************************
  Minimum Time Step           :     4.50 sec
  Average Time Step           :     5.00 sec
  Maximum Time Step           :     5.00 sec
  Percent in Steady State     :     0.00
  Average Iterations per Step :     2.15
  Percent Not Converging      :     0.53
  
  
  ***************************
  Subcatchment Runoff Summary
  ***************************
  
  ------------------------------------------------------------------------------------------------------------------------------
                            Total      Total      Total      Total     Imperv       Perv      Total       Total     Peak  Runoff
                           Precip      Runon       Evap      Infil     Runoff     Runoff     Runoff      Runoff   Runoff   Coeff
  Subcatchment                 mm         mm         mm         mm         mm         mm         mm    10^6 ltr      CMS
  ------------------------------------------------------------------------------------------------------------------------------
  SC01                      15.40       0.00       0.00       0.00      15.43       0.00      15.43        5.09     5.54   1.002
  SC02                       7.09       0.00       0.00       0.00       7.04       0.00       7.04        1.60     0.55   0.993
  SC03                      13.56       0.00       0.00       0.00      13.62       0.00      13.62        2.45     1.90   1.005
  SC04                       7.09       0.00       0.00       0.00       6.99       0.00       6.99        0.48     0.10   0.985
  SC05                      15.40       0.00       0.00       0.00      15.42       0.00      15.42        2.41     2.41   1.001
  SC06                       8.59       0.00       0.00       0.00       8.41       0.00       8.41        2.74     0.71   0.979
  SC07                       7.09       0.00       0.00       0.00       6.99       0.00       6.99        0.33     0.07   0.985
  SC08                      13.56       0.00       0.00       0.00      13.53       0.00      13.53        3.79     1.47   0.998
  SC09                       8.59       0.00       0.00       0.00       8.50       0.00       8.50        0.59     0.26   0.989
  SC010                     15.40       0.00       0.00       0.00      15.39       0.00      15.39        1.81     1.46   0.999
  
  
  ******************
  Node Depth Summary
  ******************
  
  ---------------------------------------------------------------------------------
                                 Average  Maximum  Maximum  Time of Max    Reported
                                   Depth    Depth      HGL   Occurrence   Max Depth
  Node                 Type       Meters   Meters   Meters  days hr:min      Meters
  ---------------------------------------------------------------------------------
  J1                   JUNCTION     0.05     0.53    34.53     0  12:41        0.51
  J3                   JUNCTION     0.08     0.11    18.11     0  16:13        0.11
  CSO7                 JUNCTION     0.08     1.20    35.20     0  13:51        1.20
  J5                   JUNCTION     0.04     0.14    32.14     0  14:02        0.14
  CSO9                 JUNCTION     0.09     2.00    42.00     0  12:35        2.00
  J8                   JUNCTION     0.07     0.29    36.29     0  12:42        0.29
  CSO8                 JUNCTION     0.13     2.00    34.00     0  12:36        2.00
  J10                  JUNCTION     0.06     0.40    29.40     0  13:47        0.40
  J13                  JUNCTION     0.04     0.19    29.19     0  13:52        0.19
  J15                  JUNCTION     0.12     0.65    15.65     0  12:43        0.65
  J16                  JUNCTION     0.05     0.59    30.59     0  12:41        0.54
  CSO10                JUNCTION     0.09     1.00    31.00     0  12:36        1.00
  J12                  JUNCTION     0.44     1.05    27.05     0  14:42        1.05
  J4                   JUNCTION     0.09     1.23    34.23     0  14:01        1.14
  J6                   JUNCTION     0.05     0.07    25.07     0  16:09        0.07
  J2                   JUNCTION     0.05     0.08    25.08     0  13:37        0.08
  J19                  JUNCTION     0.11     0.17     8.17     0  12:49        0.17
  J9                   JUNCTION     0.07     0.11    29.11     0  16:13        0.11
  J14                  JUNCTION     0.07     0.11    20.11     0  23:40        0.11
  J17                  JUNCTION     0.04     0.05    20.05     0  17:09        0.05
  J7                   JUNCTION     0.05     0.23    39.23     0  12:49        0.23
  J11                  JUNCTION     0.05     0.30    31.30     0  14:48        0.30
  J18                  JUNCTION     0.04     0.16    29.16     0  13:00        0.16
  Out_to_WWTP          OUTFALL      0.10     0.17     6.17     0  15:44        0.17
  T5                   STORAGE      2.03     5.00    32.00     0  12:48        5.00
  T4                   STORAGE      1.87     4.93    31.93     0  15:58        4.93
  T6                   STORAGE      2.19     5.00    36.00     0  13:14        5.00
  T3                   STORAGE      2.31     5.00    27.00     0  14:38        5.00
  T2                   STORAGE      2.21     4.98    25.98     0  17:06        4.98
  T1                   STORAGE      1.63     5.00    15.00     0  12:48        5.00
  
  
  *******************
  Node Inflow Summary
  *******************
  
  -------------------------------------------------------------------------------------------------
                                  Maximum  Maximum                  Lateral       Total        Flow
                                  Lateral    Total  Time of Max      Inflow      Inflow     Balance
                                   Inflow   Inflow   Occurrence      Volume      Volume       Error
  Node                 Type           CMS      CMS  days hr:min    10^6 ltr    10^6 ltr     Percent
  -------------------------------------------------------------------------------------------------
  J1                   JUNCTION     2.438    2.438     0  12:41         3.5         3.5       0.001
  J3                   JUNCTION     0.000    0.127     0  15:40           0        5.73       0.452
  CSO7                 JUNCTION     0.077    0.077     0  13:51       0.897       0.897       0.019
  J5                   JUNCTION     0.102    0.167     0  14:01        0.73        1.63       0.004
  CSO9                 JUNCTION     0.265    0.265     0  12:36       0.968       0.968      -0.068
  J8                   JUNCTION     0.751    0.853     0  12:41        4.57        5.48       0.011
  CSO8                 JUNCTION     1.480    1.480     0  13:46        4.24        4.24      -0.072
  J10                  JUNCTION     1.914    2.074     0  13:46         3.2        6.53      -0.275
  J13                  JUNCTION     0.566    0.566     0  13:51        2.51        2.51      -0.154
  J15                  JUNCTION     0.000    5.705     0  12:41           0        14.2       0.474
  J16                  JUNCTION     5.567    5.567     0  12:41        6.17        6.17      -0.150
  CSO10                JUNCTION     1.465    1.465     0  12:41        2.08        2.08      -0.048
  J12                  JUNCTION     0.000    1.685     0  13:48           0         9.9       9.103
  J4                   JUNCTION     0.000    0.077     0  14:31           0       0.896       0.010
  J6                   JUNCTION     0.000    0.028     0  16:00           0        1.16       0.286
  J2                   JUNCTION     0.000    0.039     0  12:48           0        1.75       0.234
  J19                  JUNCTION     0.000    0.271     0  12:48           0        10.3       0.076
  J9                   JUNCTION     0.000    0.075     0  13:40           0        3.36       0.408
  J14                  JUNCTION     0.000    0.060     0  14:38           0        2.83       0.155
  J17                  JUNCTION     0.000    0.015     0  17:06           0       0.701       0.543
  J7                   JUNCTION     0.000    0.127     0  12:49           0       0.913       0.167
  J11                  JUNCTION     0.000    0.486     0  14:48           0        3.34       0.169
  J18                  JUNCTION     0.000    0.202     0  13:00           0        1.57      -0.007
  Out_to_WWTP          OUTFALL      0.000    0.271     0  12:49           0        10.3       0.000
  T5                   STORAGE      0.000    2.295     0  12:41           0         3.5       5.915
  T4                   STORAGE      0.000    0.161     0  14:02           0        1.63      14.035
  T6                   STORAGE      0.000    0.813     0  12:42           0        5.48       8.593
  T3                   STORAGE      0.000    1.348     0  14:45           0        9.08      17.817
  T2                   STORAGE      0.000    0.495     0  13:52           0        2.52      54.175
  T1                   STORAGE      0.000    3.510     0  12:43           0        14.1       1.542
  
  
  **********************
  Node Surcharge Summary
  **********************
  
  Surcharging occurs when water rises above the top of the highest conduit.
  ---------------------------------------------------------------------
                                               Max. Height   Min. Depth
                                   Hours       Above Crown    Below Rim
  Node                 Type      Surcharged         Meters       Meters
  ---------------------------------------------------------------------
  CSO7                 JUNCTION        0.51          0.945        0.000
  CSO9                 JUNCTION        0.49          1.682        0.000
  CSO8                 JUNCTION        1.19          1.547        0.000
  CSO10                JUNCTION        0.75          0.560        0.000
  J4                   JUNCTION        0.33          0.925        0.775
  
  
  *********************
  Node Flooding Summary
  *********************
  
  Flooding refers to all water that overflows a node, whether it ponds or not.
  --------------------------------------------------------------------------
                                                             Total   Maximum
                                 Maximum   Time of Max       Flood    Ponded
                        Hours       Rate    Occurrence      Volume     Depth
  Node                 Flooded       CMS   days hr:min    10^6 ltr    Meters
  --------------------------------------------------------------------------
  CSO7                    0.03     0.012      0  13:51       0.000     0.000
  CSO9                    0.23     0.156      0  12:36       0.056     0.000
  CSO8                    0.76     1.028      0  13:46       0.900     0.000
  CSO10                   0.53     1.262      0  12:41       0.508     0.000
  T5                      2.91     0.847      0  12:48       1.333     0.000
  T6                      2.98     0.333      0  14:37       1.386     0.000
  T3                      6.68     1.288      0  14:45       2.274     0.000
  T1                      2.24     2.455      0  12:48       3.406     0.000
  
  
  **********************
  Storage Volume Summary
  **********************
  
  --------------------------------------------------------------------------------------------------
                         Average     Avg  Evap Exfil       Maximum     Max    Time of Max    Maximum
                          Volume    Pcnt  Pcnt  Pcnt        Volume    Pcnt     Occurrence    Outflow
  Storage Unit           1000 m3    Full  Loss  Loss       1000 m3    Full    days hr:min        CMS
  --------------------------------------------------------------------------------------------------
  T5                       0.203      41     0     0         0.500     100       0  12:48      0.039
  T4                       0.187      37     0     0         0.493      99       0  15:58      0.028
  T6                       0.262      44     0     0         0.600     100       0  13:14      0.075
  T3                       1.199      46     0     0         2.600     100       0  14:38      0.060
  T2                       0.441      44     0     0         0.996     100       0  17:06      0.015
  T1                       0.229      33     0     0         0.700     100       0  12:48      0.271
  
  
  ***********************
  Outfall Loading Summary
  ***********************
  
  -----------------------------------------------------------
                         Flow       Avg       Max       Total
                         Freq      Flow      Flow      Volume
  Outfall Node           Pcnt       CMS       CMS    10^6 ltr
  -----------------------------------------------------------
  Out_to_WWTP           99.43     0.121     0.271      10.267
  -----------------------------------------------------------
  System                99.43     0.121     0.271      10.267
  
  
  ********************
  Link Flow Summary
  ********************
  
  -----------------------------------------------------------------------------
                                 Maximum  Time of Max   Maximum    Max/    Max/
                                  |Flow|   Occurrence   |Veloc|    Full    Full
  Link                 Type          CMS  days hr:min     m/sec    Flow   Depth
  -----------------------------------------------------------------------------
  C1                   CONDUIT     0.039     0  13:37      1.24    0.01    0.10
  C6                   CONDUIT     0.070     0  14:02      1.29    1.12    0.73
  C2                   CONDUIT     0.028     0  16:09      1.00    0.03    0.16
  C9                   CONDUIT     0.126     0  12:49      1.31    0.43    0.51
  C16                  CONDUIT     0.493     0  14:42      1.80    0.05    0.17
  C3                   CONDUIT     0.060     0  20:56      1.37    0.02    0.11
  C19                  CONDUIT     0.015     0  17:09      0.44    0.01    0.34
  C11                  CONDUIT     0.127     0  16:13      1.51    0.01    0.18
  C20                  CONDUIT     5.447     0  12:41      8.08    0.17    0.28
  C22                  CONDUIT     0.202     0  13:00      1.57    0.09    0.51
  C12                  CONDUIT     0.075     0  16:13      0.93    0.01    0.29
  C17                  CONDUIT     1.610     0  13:48      4.44    0.08    0.34
  C10                  CONDUIT     0.813     0  12:42      0.94    0.08    0.60
  C13                  CONDUIT     1.348     0  14:45      0.85    0.08    0.76
  C18                  CONDUIT     0.495     0  13:52      1.01    0.02    0.55
  C23                  CONDUIT     3.510     0  12:43      2.59    0.39    0.72
  C4                   CONDUIT     2.295     0  12:41      3.56    0.56    0.77
  C7                   CONDUIT     0.161     0  14:02      0.83    0.04    0.57
  C14                  CONDUIT     0.271     0  12:49      2.08    0.02    0.09
  C5                   CONDUIT     0.077     0  14:31      1.64    1.31    1.00
  C8                   CONDUIT     0.127     0  12:49      2.09    1.60    0.86
  C15                  CONDUIT     0.486     0  14:48      4.03    1.55    0.83
  C21                  CONDUIT     0.202     0  13:00      2.03    1.16    0.69
  V4                   ORIFICE     0.028     0  16:00                      0.35
  V5                   ORIFICE     0.039     0  12:48                      1.00
  V1                   ORIFICE     0.271     0  12:48                      1.00
  V6                   ORIFICE     0.075     0  13:40                      0.43
  V3                   ORIFICE     0.060     0  14:38                      0.32
  V2                   ORIFICE     0.015     0  17:06                      0.11
  
  
  ***************************
  Flow Classification Summary
  ***************************
  
  -------------------------------------------------------------------------------------
                      Adjusted    ---------- Fraction of Time in Flow Class ---------- 
                       /Actual         Up    Down  Sub   Sup   Up    Down  Norm  Inlet 
  Conduit               Length    Dry  Dry   Dry   Crit  Crit  Crit  Crit  Ltd   Ctrl  
  -------------------------------------------------------------------------------------
  C1                      1.00   0.00  0.00  0.00  0.03  0.97  0.00  0.00  0.96  0.00
  C6                      1.00   0.00  0.00  0.00  0.03  0.97  0.00  0.00  0.00  0.00
  C2                      1.00   0.00  0.00  0.00  0.17  0.83  0.00  0.00  0.97  0.00
  C9                      1.00   0.00  0.00  0.00  1.00  0.00  0.00  0.00  1.00  0.00
  C16                     1.00   0.00  0.25  0.00  0.53  0.22  0.00  0.00  0.51  0.00
  C3                      1.00   0.00  0.00  0.00  0.03  0.96  0.00  0.00  0.97  0.00
  C19                     1.00   0.00  0.00  0.00  1.00  0.00  0.00  0.00  1.00  0.00
  C11                     1.00   0.00  0.00  0.00  0.13  0.87  0.00  0.00  1.00  0.00
  C20                     1.00   0.00  0.00  0.00  0.75  0.25  0.00  0.00  0.99  0.00
  C22                     1.00   0.00  0.00  0.00  0.92  0.08  0.00  0.00  1.00  0.00
  C12                     1.00   0.00  0.00  0.00  0.63  0.37  0.00  0.00  0.94  0.00
  C17                     1.00   0.00  0.00  0.00  0.62  0.38  0.00  0.00  0.98  0.00
  C10                     1.00   0.00  0.00  0.00  0.84  0.16  0.00  0.00  0.98  0.00
  C13                     1.00   0.00  0.00  0.00  0.88  0.12  0.00  0.00  0.53  0.00
  C18                     1.00   0.00  0.00  0.00  0.96  0.04  0.00  0.00  0.98  0.00
  C23                     1.00   0.00  0.00  0.00  0.76  0.24  0.00  0.00  0.96  0.00
  C4                      1.00   0.00  0.00  0.00  0.82  0.18  0.00  0.00  0.98  0.00
  C7                      1.00   0.00  0.00  0.00  0.85  0.15  0.00  0.00  0.97  0.00
  C14                     1.00   0.00  0.00  0.00  0.00  1.00  0.00  0.00  0.50  0.00
  C5                      1.00   0.00  0.00  0.00  0.95  0.05  0.00  0.00  0.96  0.00
  C8                      1.00   0.00  0.00  0.00  0.24  0.76  0.00  0.00  0.00  0.00
  C15                     1.00   0.25  0.00  0.00  0.00  0.75  0.00  0.00  0.01  0.00
  C21                     1.00   0.00  0.00  0.00  0.01  0.99  0.00  0.00  0.00  0.00
  
  
  *************************
  Conduit Surcharge Summary
  *************************
  
  ----------------------------------------------------------------------------
                                                           Hours        Hours 
                         --------- Hours Full --------   Above Full   Capacity
  Conduit                Both Ends  Upstream  Dnstream   Normal Flow   Limited
  ----------------------------------------------------------------------------
  C6                          0.01      0.33      0.01      0.15         0.01
  C10                         0.01      0.01     11.01      0.01         0.01
  C13                         0.01      0.01     10.43      0.01         0.01
  C18                         0.01      0.01      9.87      0.01         0.01
  C23                         0.01      0.01     10.25      0.01         0.01
  C4                          0.01      0.01     11.05      0.01         0.01
  C7                          0.01      0.01     10.83      0.01         0.01
  C5                          0.40      0.51      0.59      0.52         0.34
  C8                          0.01      0.49      0.01      0.49         0.01
  C15                         0.01      1.19      0.01      1.23         0.01
  C21                         0.01      0.76      0.01      0.71         0.01
  

  Analysis begun on:  Tue Sep 21 00:25:29 2021
  Analysis ended on:  Tue Sep 21 00:25:30 2021
  Total elapsed time: 00:00:01