
  EPA STORM WATER MANAGEMENT MODEL - VERSION 5.1 (Build 5.3.0.dev0)
  --------------------------------------------------------------

  WARNING 09: time series interval greater than recording interval for Rain Gage RG1
  WARNING 09: time series interval greater than recording interval for Rain Gage RG2
  WARNING 09: time series interval greater than recording interval for Rain Gage RG3
  WARNING 09: time series interval greater than recording interval for Rain Gage RG4
  
  *********************************************************
  NOTE: The summary statistics displayed in this report are
  based on results found at every computational time step,  
  not just on results from each reporting time step.
  *********************************************************
  
  ****************
  Analysis Options
  ****************
  Flow Units ............... CMS
  Process Models:
    Rainfall/Runoff ........ YES
    RDII ................... NO
    Snowmelt ............... NO
    Groundwater ............ NO
    Flow Routing ........... YES
    Ponding Allowed ........ YES
    Water Quality .......... NO
  Infiltration Method ...... HORTON
  Flow Routing Method ...... DYNWAVE
  Surcharge Method ......... EXTRAN
  Starting Date ............ 08/28/2015 00:00:00
  Ending Date .............. 08/28/2015 23:40:00
  Antecedent Dry Days ...... 0.0
  Report Time Step ......... 00:01:00
  Wet Time Step ............ 00:01:00
  Dry Time Step ............ 00:01:00
  Routing Time Step ........ 5.00 sec
  Variable Time Step ....... YES
  Maximum Trials ........... 8
  Number of Threads ........ 1
  Head Tolerance ........... 0.001500 m
  
  
  **************************        Volume         Depth
  Runoff Quantity Continuity     hectare-m            mm
  **************************     ---------       -------
  Total Precipitation ......         2.157        11.968
  Evaporation Loss .........         0.000         0.000
  Infiltration Loss ........         0.000         0.000
  Surface Runoff ...........         2.143        11.895
  Final Storage ............         0.016         0.088
  Continuity Error (%) .....        -0.125
  
  
  **************************        Volume        Volume
  Flow Routing Continuity        hectare-m      10^6 ltr
  **************************     ---------     ---------
  Dry Weather Inflow .......         0.758         7.576
  Wet Weather Inflow .......         2.143        21.435
  Groundwater Inflow .......         0.000         0.000
  RDII Inflow ..............         0.000         0.000
  External Inflow ..........         0.000         0.000
  External Outflow .........         1.543        15.428
  Flooding Loss ............         0.541         5.408
  Evaporation Loss .........         0.000         0.000
  Exfiltration Loss ........         0.000         0.000
  Initial Stored Volume ....         0.000         0.000
  Final Stored Volume ......         0.683         6.830
  Continuity Error (%) .....         4.636
  
  
  *************************
  Highest Continuity Errors
  *************************
  Node T2 (29.36%)
  Node T3 (13.73%)
  Node T4 (7.26%)
  Node J12 (7.11%)
  Node T5 (5.45%)
  
  
  ***************************
  Time-Step Critical Elements
  ***************************
  None
  
  
  ********************************
  Highest Flow Instability Indexes
  ********************************
  All links are stable.
  
  
  *************************
  Routing Time Step Summary
  *************************
  Minimum Time Step           :     4.50 sec
  Average Time Step           :     5.00 sec
  Maximum Time Step           :     5.00 sec
  Percent in Steady State     :     0.00
  Average Iterations per Step :     2.09
  Percent Not Converging      :     0.19
  
  
  ***************************
  Subcatchment Runoff Summary
  ***************************
  
  ------------------------------------------------------------------------------------------------------------------------------
                            Total      Total      Total      Total     Imperv       Perv      Total       Total     Peak  Runoff
                           Precip      Runon       Evap      Infil     Runoff     Runoff     Runoff      Runoff   Runoff   Coeff
  Subcatchment                 mm         mm         mm         mm         mm         mm         mm    10^6 ltr      CMS
  ------------------------------------------------------------------------------------------------------------------------------
  SC01                      10.53       0.00       0.00       0.00      10.48       0.00      10.48        3.46     0.61   0.995
  SC02                       9.57       0.00       0.00       0.00       9.50       0.00       9.50        2.16     0.44   0.993
  SC03                       9.78       0.00       0.00       0.00       9.74       0.00       9.74        1.75     0.36   0.996
  SC04                       9.57       0.00       0.00       0.00       9.44       0.00       9.44        0.65     0.11   0.986
  SC05                      10.53       0.00       0.00       0.00      10.47       0.00      10.47        1.63     0.28   0.995
  SC06                      18.81       0.00       0.00       0.00      18.71       0.00      18.71        6.09     1.47   0.995
  SC07                       9.57       0.00       0.00       0.00       9.44       0.00       9.44        0.45     0.07   0.986
  SC08                       9.78       0.00       0.00       0.00       9.69       0.00       9.69        2.71     0.47   0.991
  SC09                      18.81       0.00       0.00       0.00      18.76       0.00      18.76        1.29     0.40   0.998
  SC010                     10.53       0.00       0.00       0.00      10.46       0.00      10.46        1.23     0.19   0.993
  
  
  ******************
  Node Depth Summary
  ******************
  
  ---------------------------------------------------------------------------------
                                 Average  Maximum  Maximum  Time of Max    Reported
                                   Depth    Depth      HGL   Occurrence   Max Depth
  Node                 Type       Meters   Meters   Meters  days hr:min      Meters
  ---------------------------------------------------------------------------------
  J1                   JUNCTION     0.06     0.17    34.17     0  00:47        0.17
  J3                   JUNCTION     0.10     0.11    18.11     0  14:01        0.11
  CSO7                 JUNCTION     0.08     1.20    35.20     0  01:11        0.74
  J5                   JUNCTION     0.05     0.14    32.14     0  01:12        0.14
  CSO9                 JUNCTION     0.15     2.00    42.00     0  12:11        2.00
  J8                   JUNCTION     0.09     0.40    36.40     0  12:42        0.40
  CSO8                 JUNCTION     0.10     2.00    34.00     0  00:41        1.98
  J10                  JUNCTION     0.07     0.25    29.25     0  01:03        0.25
  J13                  JUNCTION     0.05     0.17    29.17     0  01:11        0.17
  J15                  JUNCTION     0.14     0.28    15.28     0  01:14        0.28
  J16                  JUNCTION     0.05     0.18    30.18     0  00:46        0.18
  CSO10                JUNCTION     0.09     0.53    30.53     0  01:12        0.47
  J12                  JUNCTION     0.65     1.01    27.01     0  13:00        1.01
  J4                   JUNCTION     0.09     0.30    33.30     0  01:16        0.30
  J6                   JUNCTION     0.06     0.06    25.06     0  02:58        0.06
  J2                   JUNCTION     0.07     0.07    25.07     0  13:55        0.07
  J19                  JUNCTION     0.14     0.17     8.17     0  01:40        0.17
  J9                   JUNCTION     0.10     0.11    29.11     0  14:44        0.11
  J14                  JUNCTION     0.10     0.11    20.11     0  23:40        0.11
  J17                  JUNCTION     0.05     0.05    20.05     0  18:44        0.05
  J7                   JUNCTION     0.07     0.23    39.23     0  12:55        0.23
  J11                  JUNCTION     0.07     0.27    31.27     0  01:02        0.27
  J18                  JUNCTION     0.04     0.15    29.15     0  01:14        0.15
  Out_to_WWTP          OUTFALL      0.14     0.17     6.17     0  01:37        0.17
  T5                   STORAGE      2.76     4.03    31.03     0  13:53        4.03
  T4                   STORAGE      2.48     2.91    29.91     0  02:43        2.91
  T6                   STORAGE      3.96     5.00    36.00     0  12:18        5.00
  T3                   STORAGE      4.31     5.00    27.00     0  12:58        5.00
  T2                   STORAGE      4.01     5.00    26.00     0  17:36        5.00
  T1                   STORAGE      2.39     4.99    14.99     0  01:40        4.99
  
  
  *******************
  Node Inflow Summary
  *******************
  
  -------------------------------------------------------------------------------------------------
                                  Maximum  Maximum                  Lateral       Total        Flow
                                  Lateral    Total  Time of Max      Inflow      Inflow     Balance
                                   Inflow   Inflow   Occurrence      Volume      Volume       Error
  Node                 Type           CMS      CMS  days hr:min    10^6 ltr    10^6 ltr     Percent
  -------------------------------------------------------------------------------------------------
  J1                   JUNCTION     0.282    0.282     0  00:46        2.73        2.73      -0.116
  J3                   JUNCTION     0.000    0.116     0  13:58           0         8.7       0.277
  CSO7                 JUNCTION     0.075    0.075     0  01:11        1.01        1.01       0.010
  J5                   JUNCTION     0.108    0.166     0  01:11       0.899        1.91      -0.085
  CSO9                 JUNCTION     0.410    0.410     0  12:16        1.68        1.68      -0.026
  J8                   JUNCTION     1.510    1.638     0  12:41        7.92        9.29      -0.066
  CSO8                 JUNCTION     0.465    0.465     0  01:01        3.16        3.16      -0.036
  J10                  JUNCTION     0.359    0.722     0  01:01         2.5        5.66      -0.097
  J13                  JUNCTION     0.439    0.439     0  01:11        3.07        3.07      -0.316
  J15                  JUNCTION     0.000    0.785     0  01:12           0        15.8       0.305
  J16                  JUNCTION     0.616    0.616     0  00:46        4.54        4.54      -0.109
  CSO10                JUNCTION     0.194    0.194     0  01:11         1.5         1.5      -0.014
  J12                  JUNCTION     0.000    0.736     0  01:03           0        10.8       7.655
  J4                   JUNCTION     0.000    0.075     0  01:11           0        1.01       0.108
  J6                   JUNCTION     0.000    0.021     0  02:50           0        1.59       0.107
  J2                   JUNCTION     0.000    0.035     0  13:53           0        2.44       0.137
  J19                  JUNCTION     0.000    0.270     0  01:40           0        15.4       0.047
  J9                   JUNCTION     0.000    0.075     0  12:18           0        5.19       0.263
  J14                  JUNCTION     0.000    0.060     0  12:58           0        4.67       0.092
  J17                  JUNCTION     0.000    0.015     0  17:36           0        1.14       0.349
  J7                   JUNCTION     0.000    0.127     0  12:55           0        1.37       0.078
  J11                  JUNCTION     0.000    0.465     0  01:01           0        3.16       0.087
  J18                  JUNCTION     0.000    0.175     0  01:14           0         1.5      -0.048
  Out_to_WWTP          OUTFALL      0.000    0.270     0  01:40           0        15.4       0.000
  T5                   STORAGE      0.000    0.257     0  00:47           0        2.73       5.762
  T4                   STORAGE      0.000    0.160     0  01:12           0        1.91       7.829
  T6                   STORAGE      0.000    1.516     0  12:42           0         9.3       3.607
  T3                   STORAGE      0.000    0.706     0  01:05           0        10.1      15.913
  T2                   STORAGE      0.000    0.402     0  01:12           0        3.08      41.566
  T1                   STORAGE      0.000    0.709     0  01:14           0        15.8       1.329
  
  
  **********************
  Node Surcharge Summary
  **********************
  
  Surcharging occurs when water rises above the top of the highest conduit.
  ---------------------------------------------------------------------
                                               Max. Height   Min. Depth
                                   Hours       Above Crown    Below Rim
  Node                 Type      Surcharged         Meters       Meters
  ---------------------------------------------------------------------
  CSO7                 JUNCTION        0.13          0.945        0.000
  CSO9                 JUNCTION        1.11          1.682        0.000
  CSO8                 JUNCTION        0.43          1.547        0.000
  CSO10                JUNCTION        0.02          0.093        0.467
  
  
  *********************
  Node Flooding Summary
  *********************
  
  Flooding refers to all water that overflows a node, whether it ponds or not.
  --------------------------------------------------------------------------
                                                             Total   Maximum
                                 Maximum   Time of Max       Flood    Ponded
                        Hours       Rate    Occurrence      Volume     Depth
  Node                 Flooded       CMS   days hr:min    10^6 ltr    Meters
  --------------------------------------------------------------------------
  CSO7                    0.01     0.009      0  01:11       0.000     0.000
  CSO9                    0.74     0.285      0  12:16       0.306     0.000
  CSO8                    0.01     0.038      0  00:55       0.000     0.000
  T6                      2.44     1.441      0  12:42       3.567     0.000
  T3                      7.58     0.321      0  17:21       1.440     0.000
  T2                      2.40     0.061      0  17:36       0.094     0.000
  
  
  **********************
  Storage Volume Summary
  **********************
  
  --------------------------------------------------------------------------------------------------
                         Average     Avg  Evap Exfil       Maximum     Max    Time of Max    Maximum
                          Volume    Pcnt  Pcnt  Pcnt        Volume    Pcnt     Occurrence    Outflow
  Storage Unit           1000 m3    Full  Loss  Loss       1000 m3    Full    days hr:min        CMS
  --------------------------------------------------------------------------------------------------
  T5                       0.276      55     0     0         0.403      81       0  13:53      0.035
  T4                       0.248      50     0     0         0.291      58       0  02:43      0.021
  T6                       0.475      79     0     0         0.600     100       0  12:18      0.075
  T3                       2.241      86     0     0         2.600     100       0  12:58      0.060
  T2                       0.802      80     0     0         1.000     100       0  17:36      0.015
  T1                       0.334      48     0     0         0.699     100       0  01:40      0.270
  
  
  ***********************
  Outfall Loading Summary
  ***********************
  
  -----------------------------------------------------------
                         Flow       Avg       Max       Total
                         Freq      Flow      Flow      Volume
  Outfall Node           Pcnt       CMS       CMS    10^6 ltr
  -----------------------------------------------------------
  Out_to_WWTP           99.48     0.182     0.270      15.428
  -----------------------------------------------------------
  System                99.48     0.182     0.270      15.428
  
  
  ********************
  Link Flow Summary
  ********************
  
  -----------------------------------------------------------------------------
                                 Maximum  Time of Max   Maximum    Max/    Max/
                                  |Flow|   Occurrence   |Veloc|    Full    Full
  Link                 Type          CMS  days hr:min     m/sec    Flow   Depth
  -----------------------------------------------------------------------------
  C1                   CONDUIT     0.035     0  13:55      1.03    0.01    0.09
  C6                   CONDUIT     0.061     0  01:13      1.28    0.96    0.72
  C2                   CONDUIT     0.021     0  02:58      0.91    0.02    0.14
  C9                   CONDUIT     0.127     0  12:55      1.21    0.43    0.63
  C16                  CONDUIT     0.411     0  01:03      1.68    0.04    0.13
  C3                   CONDUIT     0.060     0  13:16      1.44    0.02    0.11
  C19                  CONDUIT     0.015     0  18:44      0.47    0.01    0.16
  C11                  CONDUIT     0.116     0  14:01      1.46    0.01    0.09
  C20                  CONDUIT     0.562     0  00:47      2.92    0.02    0.11
  C22                  CONDUIT     0.169     0  01:14      1.55    0.08    0.27
  C12                  CONDUIT     0.075     0  14:44      1.14    0.01    0.28
  C17                  CONDUIT     0.686     0  01:03      2.81    0.03    0.29
  C10                  CONDUIT     1.516     0  12:42      1.80    0.16    0.63
  C13                  CONDUIT     0.706     0  01:05      2.36    0.04    0.75
  C18                  CONDUIT     0.402     0  01:12      2.25    0.01    0.54
  C23                  CONDUIT     0.709     0  01:14      2.06    0.08    0.59
  C4                   CONDUIT     0.257     0  00:47      2.06    0.06    0.58
  C7                   CONDUIT     0.160     0  01:12      1.59    0.04    0.57
  C14                  CONDUIT     0.270     0  01:40      2.08    0.02    0.09
  C5                   CONDUIT     0.075     0  01:11      1.46    1.28    1.00
  C8                   CONDUIT     0.127     0  12:55      2.05    1.60    0.86
  C15                  CONDUIT     0.465     0  01:01      3.41    1.48    0.80
  C21                  CONDUIT     0.175     0  01:14      1.78    1.00    0.67
  V4                   ORIFICE     0.021     0  02:50                      0.35
  V5                   ORIFICE     0.035     0  13:53                      1.00
  V1                   ORIFICE     0.270     0  01:40                      1.00
  V6                   ORIFICE     0.075     0  12:18                      0.43
  V3                   ORIFICE     0.060     0  12:58                      0.32
  V2                   ORIFICE     0.015     0  17:36                      0.11
  
  
  ***************************
  Flow Classification Summary
  ***************************
  
  -------------------------------------------------------------------------------------
                      Adjusted    ---------- Fraction of Time in Flow Class ---------- 
                       /Actual         Up    Down  Sub   Sup   Up    Down  Norm  Inlet 
  Conduit               Length    Dry  Dry   Dry   Crit  Crit  Crit  Crit  Ltd   Ctrl  
  -------------------------------------------------------------------------------------
  C1                      1.00   0.00  0.00  0.00  0.00  1.00  0.00  0.00  0.98  0.00
  C6                      1.00   0.00  0.00  0.00  0.02  0.98  0.00  0.00  0.00  0.00
  C2                      1.00   0.00  0.00  0.00  0.10  0.90  0.00  0.00  0.99  0.00
  C9                      1.00   0.00  0.00  0.00  1.00  0.00  0.00  0.00  1.00  0.00
  C16                     1.00   0.00  0.00  0.00  0.57  0.43  0.00  0.00  0.39  0.00
  C3                      1.00   0.00  0.00  0.00  0.00  0.99  0.00  0.00  0.76  0.00
  C19                     1.00   0.00  0.00  0.00  1.00  0.00  0.00  0.00  1.00  0.00
  C11                     1.00   0.00  0.00  0.00  0.10  0.90  0.00  0.00  1.00  0.00
  C20                     1.00   0.00  0.00  0.00  0.79  0.21  0.00  0.00  0.99  0.00
  C22                     1.00   0.00  0.00  0.00  0.93  0.07  0.00  0.00  1.00  0.00
  C12                     1.00   0.00  0.00  0.00  0.88  0.12  0.00  0.00  0.96  0.00
  C17                     1.00   0.00  0.00  0.00  0.83  0.17  0.00  0.00  0.98  0.00
  C10                     1.00   0.00  0.00  0.00  0.99  0.01  0.00  0.00  0.99  0.00
  C13                     1.00   0.00  0.00  0.00  0.98  0.02  0.00  0.00  0.22  0.00
  C18                     1.00   0.00  0.00  0.00  0.98  0.02  0.00  0.00  0.99  0.00
  C23                     1.00   0.00  0.00  0.00  0.98  0.02  0.00  0.00  0.98  0.00
  C4                      1.00   0.00  0.00  0.00  0.98  0.02  0.00  0.00  0.99  0.00
  C7                      1.00   0.00  0.00  0.00  0.98  0.02  0.00  0.00  0.99  0.00
  C14                     1.00   0.00  0.00  0.00  0.00  1.00  0.00  0.00  0.74  0.00
  C5                      1.00   0.00  0.00  0.00  0.91  0.09  0.00  0.00  0.97  0.00
  C8                      1.00   0.00  0.00  0.00  0.13  0.87  0.00  0.00  0.01  0.00
  C15                     1.00   0.00  0.00  0.00  0.00  1.00  0.00  0.00  0.00  0.00
  C21                     1.00   0.00  0.00  0.00  0.00  1.00  0.00  0.00  0.00  0.00
  
  
  *************************
  Conduit Surcharge Summary
  *************************
  
  ----------------------------------------------------------------------------
                                                           Hours        Hours 
                         --------- Hours Full --------   Above Full   Capacity
  Conduit                Both Ends  Upstream  Dnstream   Normal Flow   Limited
  ----------------------------------------------------------------------------
  C10                         0.01      0.01     22.81      0.01         0.01
  C13                         0.01      0.01     22.48      0.01         0.01
  C18                         0.01      0.01     22.52      0.01         0.01
  C23                         0.01      0.01     20.18      0.01         0.01
  C4                          0.01      0.01     22.92      0.01         0.01
  C7                          0.01      0.01     22.73      0.01         0.01
  C5                          0.12      0.13      0.20      0.19         0.10
  C8                          0.01      1.11      0.01      1.12         0.01
  C15                         0.01      0.43      0.01      0.53         0.01
  C21                         0.01      0.02      0.01      0.01         0.01
  

  Analysis begun on:  Tue Sep 21 00:32:42 2021
  Analysis ended on:  Tue Sep 21 00:32:42 2021
  Total elapsed time: < 1 sec