
  EPA STORM WATER MANAGEMENT MODEL - VERSION 5.1 (Build 5.3.0.dev0)
  --------------------------------------------------------------

  WARNING 09: time series interval greater than recording interval for Rain Gage RG1
  WARNING 09: time series interval greater than recording interval for Rain Gage RG2
  WARNING 09: time series interval greater than recording interval for Rain Gage RG3
  WARNING 09: time series interval greater than recording interval for Rain Gage RG4
  
  *********************************************************
  NOTE: The summary statistics displayed in this report are
  based on results found at every computational time step,  
  not just on results from each reporting time step.
  *********************************************************
  
  ****************
  Analysis Options
  ****************
  Flow Units ............... CMS
  Process Models:
    Rainfall/Runoff ........ YES
    RDII ................... NO
    Snowmelt ............... NO
    Groundwater ............ NO
    Flow Routing ........... YES
    Ponding Allowed ........ YES
    Water Quality .......... NO
  Infiltration Method ...... HORTON
  Flow Routing Method ...... DYNWAVE
  Surcharge Method ......... EXTRAN
  Starting Date ............ 08/28/2015 00:00:00
  Ending Date .............. 08/28/2015 23:40:00
  Antecedent Dry Days ...... 0.0
  Report Time Step ......... 00:01:00
  Wet Time Step ............ 00:01:00
  Dry Time Step ............ 00:01:00
  Routing Time Step ........ 5.00 sec
  Variable Time Step ....... YES
  Maximum Trials ........... 8
  Number of Threads ........ 1
  Head Tolerance ........... 0.001500 m
  
  
  **************************        Volume         Depth
  Runoff Quantity Continuity     hectare-m            mm
  **************************     ---------       -------
  Total Precipitation ......         2.535        14.070
  Evaporation Loss .........         0.000         0.000
  Infiltration Loss ........         0.000         0.000
  Surface Runoff ...........         2.339        12.978
  Final Storage ............         0.208         1.152
  Continuity Error (%) .....        -0.427
  
  
  **************************        Volume        Volume
  Flow Routing Continuity        hectare-m      10^6 ltr
  **************************     ---------     ---------
  Dry Weather Inflow .......         0.758         7.576
  Wet Weather Inflow .......         2.336        23.356
  Groundwater Inflow .......         0.000         0.000
  RDII Inflow ..............         0.000         0.000
  External Inflow ..........         0.000         0.000
  External Outflow .........         0.708         7.085
  Flooding Loss ............         1.190        11.904
  Evaporation Loss .........         0.000         0.000
  Exfiltration Loss ........         0.000         0.000
  Initial Stored Volume ....         0.000         0.000
  Final Stored Volume ......         0.886         8.861
  Continuity Error (%) .....         9.962
  
  
  *************************
  Highest Continuity Errors
  *************************
  Node T2 (21.81%)
  Node T5 (20.86%)
  Node T4 (15.55%)
  Node T6 (13.62%)
  Node T3 (13.31%)
  
  
  ***************************
  Time-Step Critical Elements
  ***************************
  None
  
  
  ********************************
  Highest Flow Instability Indexes
  ********************************
  All links are stable.
  
  
  *************************
  Routing Time Step Summary
  *************************
  Minimum Time Step           :     4.50 sec
  Average Time Step           :     5.00 sec
  Maximum Time Step           :     5.00 sec
  Percent in Steady State     :     0.00
  Average Iterations per Step :     2.13
  Percent Not Converging      :     0.56
  
  
  ***************************
  Subcatchment Runoff Summary
  ***************************
  
  ------------------------------------------------------------------------------------------------------------------------------
                            Total      Total      Total      Total     Imperv       Perv      Total       Total     Peak  Runoff
                           Precip      Runon       Evap      Infil     Runoff     Runoff     Runoff      Runoff   Runoff   Coeff
  Subcatchment                 mm         mm         mm         mm         mm         mm         mm    10^6 ltr      CMS
  ------------------------------------------------------------------------------------------------------------------------------
  SC01                       9.12       0.00       0.00       0.00       8.33       0.00       8.33        2.75     1.06   0.913
  SC02                      15.76       0.00       0.00       0.00      15.04       0.00      15.04        3.42     1.47   0.954
  SC03                      20.75       0.00       0.00       0.00      20.49       0.00      20.49        3.69     3.44   0.987
  SC04                      15.76       0.00       0.00       0.00      14.16       0.00      14.16        0.98     0.29   0.898
  SC05                       9.12       0.00       0.00       0.00       8.25       0.00       8.25        1.29     0.47   0.905
  SC06                      12.38       0.00       0.00       0.00      10.23       0.00      10.23        3.33     0.67   0.826
  SC07                      15.76       0.00       0.00       0.00      14.16       0.00      14.16        0.67     0.20   0.899
  SC08                      20.75       0.00       0.00       0.00      19.87       0.00      19.87        5.56     3.60   0.957
  SC09                      12.38       0.00       0.00       0.00      11.00       0.00      11.00        0.76     0.18   0.888
  SC010                      9.12       0.00       0.00       0.00       8.02       0.00       8.02        0.94     0.31   0.880
  
  
  ******************
  Node Depth Summary
  ******************
  
  ---------------------------------------------------------------------------------
                                 Average  Maximum  Maximum  Time of Max    Reported
                                   Depth    Depth      HGL   Occurrence   Max Depth
  Node                 Type       Meters   Meters   Meters  days hr:min      Meters
  ---------------------------------------------------------------------------------
  J1                   JUNCTION     0.05     0.22    34.22     0  22:51        0.22
  J3                   JUNCTION     0.07     0.11    18.11     0  23:40        0.11
  CSO7                 JUNCTION     0.12     1.20    35.20     0  20:41        1.20
  J5                   JUNCTION     0.05     0.20    32.20     0  20:52        0.20
  CSO9                 JUNCTION     0.12     2.00    42.00     0  20:36        2.00
  J8                   JUNCTION     0.08     0.28    36.28     0  22:57        0.28
  CSO8                 JUNCTION     0.16     2.00    34.00     0  20:30        2.00
  J10                  JUNCTION     0.06     0.55    29.55     0  20:41        0.55
  J13                  JUNCTION     0.05     0.31    29.31     0  20:51        0.30
  J15                  JUNCTION     0.10     0.35    15.35     0  22:57        0.35
  J16                  JUNCTION     0.04     0.24    30.24     0  22:51        0.24
  CSO10                JUNCTION     0.08     1.00    31.00     0  22:46        1.00
  J12                  JUNCTION     0.18     1.12    27.12     0  22:29        1.12
  J4                   JUNCTION     0.11     1.43    34.43     0  22:37        0.76
  J6                   JUNCTION     0.04     0.07    25.07     0  23:37        0.07
  J2                   JUNCTION     0.05     0.08    25.08     0  23:40        0.08
  J19                  JUNCTION     0.09     0.17     8.17     0  23:01        0.17
  J9                   JUNCTION     0.07     0.11    29.11     0  23:40        0.11
  J14                  JUNCTION     0.06     0.11    20.11     0  22:44        0.11
  J17                  JUNCTION     0.03     0.05    20.05     0  22:16        0.05
  J7                   JUNCTION     0.06     0.23    39.23     0  22:59        0.23
  J11                  JUNCTION     0.06     0.30    31.30     0  20:59        0.30
  J18                  JUNCTION     0.03     0.16    29.16     0  22:59        0.16
  Out_to_WWTP          OUTFALL      0.09     0.17     6.17     0  23:00        0.17
  T5                   STORAGE      0.92     5.00    32.00     0  23:14        5.00
  T4                   STORAGE      1.19     5.00    32.00     0  21:50        5.00
  T6                   STORAGE      1.47     5.00    36.00     0  21:16        5.00
  T3                   STORAGE      1.33     5.00    27.00     0  21:07        5.00
  T2                   STORAGE      1.31     5.00    26.00     0  20:57        5.00
  T1                   STORAGE      0.78     5.00    15.00     0  22:59        5.00
  
  
  *******************
  Node Inflow Summary
  *******************
  
  -------------------------------------------------------------------------------------------------
                                  Maximum  Maximum                  Lateral       Total        Flow
                                  Lateral    Total  Time of Max      Inflow      Inflow     Balance
                                   Inflow   Inflow   Occurrence      Volume      Volume       Error
  Node                 Type           CMS      CMS  days hr:min    10^6 ltr    10^6 ltr     Percent
  -------------------------------------------------------------------------------------------------
  J1                   JUNCTION     0.477    0.477     0  22:51        2.38        2.38       0.310
  J3                   JUNCTION     0.000    0.127     0  23:40           0        4.33       0.666
  CSO7                 JUNCTION     0.208    0.208     0  20:51        1.24        1.24       0.107
  J5                   JUNCTION     0.294    0.367     0  20:51        1.22        2.35       0.412
  CSO9                 JUNCTION     0.180    0.180     0  22:41        1.14        1.14       0.156
  J8                   JUNCTION     0.679    0.806     0  22:56        5.15        6.25       0.673
  CSO8                 JUNCTION     3.598    3.598     0  20:41        6.01        6.01       0.011
  J10                  JUNCTION     3.454    3.935     0  20:41        4.44         8.1       0.258
  J13                  JUNCTION     1.485    1.485     0  20:51        4.33        4.33       0.233
  J15                  JUNCTION     0.000    1.285     0  22:51           0        9.82       1.385
  J16                  JUNCTION     1.061    1.061     0  22:51        3.82        3.82       0.289
  CSO10                JUNCTION     0.309    0.309     0  22:51        1.21        1.21       0.230
  J12                  JUNCTION     0.000    3.273     0  20:42           0          11       8.005
  J4                   JUNCTION     0.000    0.085     0  20:44           0        1.13       0.756
  J6                   JUNCTION     0.000    0.028     0  21:50           0       0.943       0.436
  J2                   JUNCTION     0.000    0.039     0  23:15           0        1.23       0.467
  J19                  JUNCTION     0.000    0.271     0  22:59           0         7.1       0.178
  J9                   JUNCTION     0.000    0.075     0  21:16           0        2.77       0.703
  J14                  JUNCTION     0.000    0.060     0  21:07           0        2.18       0.201
  J17                  JUNCTION     0.000    0.015     0  20:57           0       0.546       0.672
  J7                   JUNCTION     0.000    0.127     0  22:59           0        1.11       1.244
  J11                  JUNCTION     0.000    0.487     0  20:59           0         3.7       1.040
  J18                  JUNCTION     0.000    0.202     0  22:59           0        1.18       0.992
  Out_to_WWTP          OUTFALL      0.000    0.271     0  23:01           0        7.08       0.000
  T5                   STORAGE      0.000    0.436     0  22:51           0        2.37      26.366
  T4                   STORAGE      0.000    0.344     0  20:52           0        2.34      18.420
  T6                   STORAGE      0.000    0.766     0  22:57           0         6.2      15.771
  T3                   STORAGE      0.000    2.762     0  20:43           0        10.2      15.355
  T2                   STORAGE      0.000    1.373     0  20:51           0        4.32      27.888
  T1                   STORAGE      0.000    1.106     0  22:57           0        9.69       9.331
  
  
  **********************
  Node Surcharge Summary
  **********************
  
  Surcharging occurs when water rises above the top of the highest conduit.
  ---------------------------------------------------------------------
                                               Max. Height   Min. Depth
                                   Hours       Above Crown    Below Rim
  Node                 Type      Surcharged         Meters       Meters
  ---------------------------------------------------------------------
  CSO7                 JUNCTION        1.32          0.945        0.000
  CSO9                 JUNCTION        0.86          1.682        0.000
  CSO8                 JUNCTION        1.38          1.547        0.000
  CSO10                JUNCTION        0.42          0.560        0.000
  J4                   JUNCTION        1.16          1.131        0.569
  
  
  *********************
  Node Flooding Summary
  *********************
  
  Flooding refers to all water that overflows a node, whether it ponds or not.
  --------------------------------------------------------------------------
                                                             Total   Maximum
                                 Maximum   Time of Max       Flood    Ponded
                        Hours       Rate    Occurrence      Volume     Depth
  Node                 Flooded       CMS   days hr:min    10^6 ltr    Meters
  --------------------------------------------------------------------------
  CSO7                    1.01     0.135      0  20:51       0.104     0.000
  CSO9                    0.41     0.056      0  22:41       0.031     0.000
  CSO8                    1.12     3.111      0  20:41       2.304     0.000
  CSO10                   0.25     0.108      0  22:51       0.033     0.000
  T5                      0.42     0.165      0  23:16       0.148     0.000
  T4                      1.44     0.171      0  22:41       0.530     0.000
  T6                      1.89     0.690      0  22:57       1.986     0.000
  T3                      2.11     2.056      0  22:31       3.877     0.000
  T2                      2.70     0.701      0  20:57       1.830     0.000
  T1                      0.67     0.793      0  22:59       1.062     0.000
  
  
  **********************
  Storage Volume Summary
  **********************
  
  --------------------------------------------------------------------------------------------------
                         Average     Avg  Evap Exfil       Maximum     Max    Time of Max    Maximum
                          Volume    Pcnt  Pcnt  Pcnt        Volume    Pcnt     Occurrence    Outflow
  Storage Unit           1000 m3    Full  Loss  Loss       1000 m3    Full    days hr:min        CMS
  --------------------------------------------------------------------------------------------------
  T5                       0.092      18     0     0         0.500     100       0  23:14      0.039
  T4                       0.119      24     0     0         0.500     100       0  21:50      0.028
  T6                       0.176      29     0     0         0.600     100       0  21:16      0.075
  T3                       0.691      27     0     0         2.600     100       0  21:07      0.699
  T2                       0.262      26     0     0         1.000     100       0  20:57      0.015
  T1                       0.109      16     0     0         0.700     100       0  22:59      0.271
  
  
  ***********************
  Outfall Loading Summary
  ***********************
  
  -----------------------------------------------------------
                         Flow       Avg       Max       Total
                         Freq      Flow      Flow      Volume
  Outfall Node           Pcnt       CMS       CMS    10^6 ltr
  -----------------------------------------------------------
  Out_to_WWTP           99.43     0.084     0.271       7.085
  -----------------------------------------------------------
  System                99.43     0.084     0.271       7.085
  
  
  ********************
  Link Flow Summary
  ********************
  
  -----------------------------------------------------------------------------
                                 Maximum  Time of Max   Maximum    Max/    Max/
                                  |Flow|   Occurrence   |Veloc|    Full    Full
  Link                 Type          CMS  days hr:min     m/sec    Flow   Depth
  -----------------------------------------------------------------------------
  C1                   CONDUIT     0.039     0  23:40      1.02    0.01    0.10
  C6                   CONDUIT     0.073     0  20:51      1.29    1.17    0.83
  C2                   CONDUIT     0.028     0  23:36      1.04    0.03    0.16
  C9                   CONDUIT     0.127     0  22:59      1.29    0.43    0.52
  C16                  CONDUIT     0.489     0  22:57      1.86    0.05    0.21
  C3                   CONDUIT     0.060     0  22:47      1.39    0.02    0.11
  C19                  CONDUIT     0.015     0  22:17      0.38    0.01    0.20
  C11                  CONDUIT     0.127     0  23:40      1.40    0.01    0.12
  C20                  CONDUIT     0.963     0  22:51      3.60    0.03    0.14
  C22                  CONDUIT     0.202     0  22:59      1.57    0.09    0.32
  C12                  CONDUIT     0.075     0  23:40      1.05    0.01    0.31
  C17                  CONDUIT     3.219     0  20:42      4.82    0.16    0.37
  C10                  CONDUIT     0.766     0  22:57      0.94    0.08    0.59
  C13                  CONDUIT     2.762     0  20:43      1.31    0.16    0.78
  C18                  CONDUIT     1.373     0  20:51      1.01    0.05    0.58
  C23                  CONDUIT     1.106     0  22:57      0.96    0.12    0.62
  C4                   CONDUIT     0.436     0  22:51      1.13    0.11    0.61
  C7                   CONDUIT     0.344     0  20:52      0.83    0.08    0.60
  C14                  CONDUIT     0.271     0  23:01      2.08    0.02    0.09
  C5                   CONDUIT     0.085     0  20:44      1.78    1.46    1.00
  C8                   CONDUIT     0.127     0  22:59      1.81    1.60    0.86
  C15                  CONDUIT     0.487     0  20:59      3.95    1.55    0.83
  C21                  CONDUIT     0.202     0  22:59      1.89    1.16    0.69
  V4                   ORIFICE     0.028     0  21:50                      0.35
  V5                   ORIFICE     0.039     0  23:15                      1.00
  V1                   ORIFICE     0.271     0  22:59                      1.00
  V6                   ORIFICE     0.075     0  21:16                      0.43
  V3                   ORIFICE     0.060     0  21:07                      0.32
  V2                   ORIFICE     0.015     0  20:57                      0.11
  
  
  ***************************
  Flow Classification Summary
  ***************************
  
  -------------------------------------------------------------------------------------
                      Adjusted    ---------- Fraction of Time in Flow Class ---------- 
                       /Actual         Up    Down  Sub   Sup   Up    Down  Norm  Inlet 
  Conduit               Length    Dry  Dry   Dry   Crit  Crit  Crit  Crit  Ltd   Ctrl  
  -------------------------------------------------------------------------------------
  C1                      1.00   0.00  0.00  0.00  0.03  0.97  0.00  0.00  0.96  0.00
  C6                      1.00   0.00  0.00  0.00  0.07  0.93  0.00  0.00  0.00  0.00
  C2                      1.00   0.00  0.00  0.00  0.12  0.88  0.00  0.00  0.97  0.00
  C9                      1.00   0.00  0.00  0.00  1.00  0.00  0.00  0.00  1.00  0.00
  C16                     1.00   0.00  0.25  0.00  0.59  0.16  0.00  0.00  0.54  0.00
  C3                      1.00   0.00  0.00  0.00  0.03  0.96  0.00  0.00  0.97  0.00
  C19                     1.00   0.00  0.00  0.00  1.00  0.00  0.00  0.00  1.00  0.00
  C11                     1.00   0.00  0.00  0.00  0.11  0.89  0.00  0.00  1.00  0.00
  C20                     1.00   0.00  0.00  0.00  0.78  0.22  0.00  0.00  0.99  0.00
  C22                     1.00   0.00  0.00  0.00  0.95  0.05  0.00  0.00  1.00  0.00
  C12                     1.00   0.00  0.00  0.00  0.33  0.67  0.00  0.00  0.89  0.00
  C17                     1.00   0.00  0.00  0.00  0.52  0.48  0.00  0.00  0.98  0.00
  C10                     1.00   0.00  0.00  0.00  0.84  0.16  0.00  0.00  0.98  0.00
  C13                     1.00   0.00  0.00  0.00  0.89  0.11  0.00  0.00  0.81  0.00
  C18                     1.00   0.00  0.00  0.00  0.96  0.04  0.00  0.00  0.98  0.00
  C23                     1.00   0.00  0.00  0.00  0.76  0.24  0.00  0.00  0.96  0.00
  C4                      1.00   0.00  0.00  0.00  0.82  0.18  0.00  0.00  0.98  0.00
  C7                      1.00   0.00  0.00  0.00  0.84  0.16  0.00  0.00  0.97  0.00
  C14                     1.00   0.00  0.00  0.00  0.00  1.00  0.00  0.00  0.49  0.00
  C5                      1.00   0.00  0.00  0.00  0.94  0.06  0.00  0.00  0.92  0.00
  C8                      1.00   0.00  0.00  0.00  0.19  0.81  0.00  0.00  0.00  0.00
  C15                     1.00   0.25  0.00  0.00  0.00  0.75  0.00  0.00  0.01  0.00
  C21                     1.00   0.00  0.00  0.00  0.00  1.00  0.00  0.00  0.00  0.00
  
  
  *************************
  Conduit Surcharge Summary
  *************************
  
  ----------------------------------------------------------------------------
                                                           Hours        Hours 
                         --------- Hours Full --------   Above Full   Capacity
  Conduit                Both Ends  Upstream  Dnstream   Normal Flow   Limited
  ----------------------------------------------------------------------------
  C6                          0.01      1.16      0.01      1.01         0.01
  C10                         0.01      0.01      6.63      0.01         0.01
  C13                         0.01      0.01      4.68      0.01         0.01
  C18                         0.01      0.01      6.17      0.01         0.01
  C23                         0.01      0.01      2.76      0.01         0.01
  C4                          0.01      0.01      8.85      0.01         0.01
  C7                          0.01      0.01      8.50      0.01         0.01
  C5                          1.19      1.32      1.37      1.28         1.11
  C8                          0.01      0.86      0.01      0.87         0.01
  C15                         0.01      1.38      0.01      1.40         0.01
  C21                         0.01      0.42      0.01      0.39         0.01
  

  Analysis begun on:  Tue Sep 21 00:34:08 2021
  Analysis ended on:  Tue Sep 21 00:34:08 2021
  Total elapsed time: < 1 sec