
  EPA STORM WATER MANAGEMENT MODEL - VERSION 5.1 (Build 5.3.0.dev0)
  --------------------------------------------------------------

  
  *********************************************************
  NOTE: The summary statistics displayed in this report are
  based on results found at every computational time step,  
  not just on results from each reporting time step.
  *********************************************************
  
  ****************
  Analysis Options
  ****************
  Flow Units ............... CMS
  Process Models:
    Rainfall/Runoff ........ YES
    RDII ................... NO
    Snowmelt ............... NO
    Groundwater ............ NO
    Flow Routing ........... YES
    Ponding Allowed ........ YES
    Water Quality .......... NO
  Infiltration Method ...... HORTON
  Flow Routing Method ...... DYNWAVE
  Surcharge Method ......... EXTRAN
  Starting Date ............ 08/28/2015 08:00:00
  Ending Date .............. 08/28/2015 15:50:00
  Antecedent Dry Days ...... 0.0
  Report Time Step ......... 00:01:00
  Wet Time Step ............ 00:01:00
  Dry Time Step ............ 00:01:00
  Routing Time Step ........ 5.00 sec
  Variable Time Step ....... YES
  Maximum Trials ........... 8
  Number of Threads ........ 1
  Head Tolerance ........... 0.001500 m
  
  
  **************************        Volume         Depth
  Runoff Quantity Continuity     hectare-m            mm
  **************************     ---------       -------
  Total Precipitation ......         2.532        14.051
  Evaporation Loss .........         0.000         0.000
  Infiltration Loss ........         0.000         0.000
  Surface Runoff ...........         2.509        13.921
  Final Storage ............         0.024         0.131
  Continuity Error (%) .....        -0.009
  
  
  **************************        Volume        Volume
  Flow Routing Continuity        hectare-m      10^6 ltr
  **************************     ---------     ---------
  Dry Weather Inflow .......         0.396         3.955
  Wet Weather Inflow .......         2.508        25.085
  Groundwater Inflow .......         0.000         0.000
  RDII Inflow ..............         0.000         0.000
  External Inflow ..........         0.000         0.000
  External Outflow .........         0.597         5.970
  Flooding Loss ............         1.247        12.468
  Evaporation Loss .........         0.000         0.000
  Exfiltration Loss ........         0.000         0.000
  Initial Stored Volume ....         0.000         0.000
  Final Stored Volume ......         0.804         8.045
  Continuity Error (%) .....         8.808
  
  
  *************************
  Highest Continuity Errors
  *************************
  Node T2 (24.00%)
  Node T3 (18.10%)
  Node T5 (17.95%)
  Node T4 (17.12%)
  Node T6 (11.03%)
  
  
  ***************************
  Time-Step Critical Elements
  ***************************
  None
  
  
  ********************************
  Highest Flow Instability Indexes
  ********************************
  All links are stable.
  
  
  *************************
  Routing Time Step Summary
  *************************
  Minimum Time Step           :     4.50 sec
  Average Time Step           :     5.00 sec
  Maximum Time Step           :     5.00 sec
  Percent in Steady State     :     0.00
  Average Iterations per Step :     2.23
  Percent Not Converging      :     0.64
  
  
  ***************************
  Subcatchment Runoff Summary
  ***************************
  
  ------------------------------------------------------------------------------------------------------------------------------
                            Total      Total      Total      Total     Imperv       Perv      Total       Total     Peak  Runoff
                           Precip      Runon       Evap      Infil     Runoff     Runoff     Runoff      Runoff   Runoff   Coeff
  Subcatchment                 mm         mm         mm         mm         mm         mm         mm    10^6 ltr      CMS
  ------------------------------------------------------------------------------------------------------------------------------
  SC01                      14.05       0.00       0.00       0.00      13.97       0.00      13.97        4.61     1.09   0.994
  SC02                      14.05       0.00       0.00       0.00      13.96       0.00      13.96        3.18     0.74   0.994
  SC03                      14.05       0.00       0.00       0.00      13.98       0.00      13.98        2.52     0.64   0.995
  SC04                      14.05       0.00       0.00       0.00      13.86       0.00      13.86        0.96     0.18   0.986
  SC05                      14.05       0.00       0.00       0.00      13.96       0.00      13.96        2.18     0.51   0.993
  SC06                      14.05       0.00       0.00       0.00      13.80       0.00      13.80        4.49     0.77   0.982
  SC07                      14.05       0.00       0.00       0.00      13.86       0.00      13.86        0.66     0.12   0.986
  SC08                      14.05       0.00       0.00       0.00      13.93       0.00      13.93        3.90     0.84   0.992
  SC09                      14.05       0.00       0.00       0.00      13.91       0.00      13.91        0.96     0.20   0.990
  SC010                     14.05       0.00       0.00       0.00      13.94       0.00      13.94        1.64     0.36   0.992
  
  
  ******************
  Node Depth Summary
  ******************
  
  ---------------------------------------------------------------------------------
                                 Average  Maximum  Maximum  Time of Max    Reported
                                   Depth    Depth      HGL   Occurrence   Max Depth
  Node                 Type       Meters   Meters   Meters  days hr:min      Meters
  ---------------------------------------------------------------------------------
  J1                   JUNCTION     0.09     0.24    34.24     0  01:36        0.24
  J3                   JUNCTION     0.10     0.12    18.12     0  03:34        0.12
  CSO7                 JUNCTION     0.33     1.20    35.20     0  01:27        1.20
  J5                   JUNCTION     0.08     0.17    32.17     0  01:42        0.17
  CSO9                 JUNCTION     0.41     2.00    42.00     0  01:26        2.00
  J8                   JUNCTION     0.13     0.31    36.31     0  01:45        0.31
  CSO8                 JUNCTION     0.43     2.00    34.00     0  01:24        2.00
  J10                  JUNCTION     0.12     0.32    29.32     0  01:35        0.32
  J13                  JUNCTION     0.08     0.23    29.23     0  01:36        0.23
  J15                  JUNCTION     0.19     0.38    15.38     0  01:41        0.38
  J16                  JUNCTION     0.08     0.25    30.25     0  01:35        0.25
  CSO10                JUNCTION     0.23     1.00    31.00     0  01:23        1.00
  J12                  JUNCTION     0.70     1.03    27.03     0  02:59        1.03
  J4                   JUNCTION     0.24     1.45    34.45     0  01:28        0.75
  J6                   JUNCTION     0.06     0.07    25.07     0  03:18        0.07
  J2                   JUNCTION     0.00     0.00    25.00     0  00:00        0.00
  J19                  JUNCTION     0.14     0.17     8.17     0  01:48        0.17
  J9                   JUNCTION     0.09     0.11    29.11     0  03:30        0.11
  J14                  JUNCTION     0.12     0.15    20.15     0  03:00        0.15
  J17                  JUNCTION     0.06     0.08    20.08     0  03:15        0.08
  J7                   JUNCTION     0.10     0.23    39.23     0  02:12        0.23
  J11                  JUNCTION     0.12     0.30    31.30     0  02:12        0.30
  J18                  JUNCTION     0.07     0.16    29.16     0  02:02        0.16
  Out_to_WWTP          OUTFALL      0.14     0.17     6.17     0  04:09        0.17
  T5                   STORAGE      4.04     5.00    32.00     0  01:51        5.00
  T4                   STORAGE      3.76     5.00    32.00     0  02:29        5.00
  T6                   STORAGE      3.94     5.00    36.00     0  01:49        5.00
  T3                   STORAGE      3.75     5.00    27.00     0  02:58        5.00
  T2                   STORAGE      3.86     5.00    26.00     0  02:14        5.00
  T1                   STORAGE      3.67     5.00    15.00     0  01:46        5.00
  
  
  *******************
  Node Inflow Summary
  *******************
  
  -------------------------------------------------------------------------------------------------
                                  Maximum  Maximum                  Lateral       Total        Flow
                                  Lateral    Total  Time of Max      Inflow      Inflow     Balance
                                   Inflow   Inflow   Occurrence      Volume      Volume       Error
  Node                 Type           CMS      CMS  days hr:min    10^6 ltr    10^6 ltr     Percent
  -------------------------------------------------------------------------------------------------
  J1                   JUNCTION     0.523    0.523     0  01:36        2.74        2.74       0.016
  J3                   JUNCTION     0.000    0.152     0  03:01           0        3.27       1.073
  CSO7                 JUNCTION     0.131    0.131     0  01:42       0.949       0.949       0.056
  J5                   JUNCTION     0.181    0.253     0  01:42        1.08        1.88       0.077
  CSO9                 JUNCTION     0.201    0.201     0  01:39        1.16        1.16       0.041
  J8                   JUNCTION     0.801    0.928     0  01:44        5.43        6.47       0.080
  CSO8                 JUNCTION     0.852    0.852     0  01:37        4.19        4.19       0.013
  J10                  JUNCTION     0.651    1.137     0  01:34         2.9        6.53      -0.043
  J13                  JUNCTION     0.753    0.753     0  01:36        3.64        3.64      -0.181
  J15                  JUNCTION     0.000    1.317     0  01:36           0        10.6       0.671
  J16                  JUNCTION     1.110    1.110     0  01:35        5.16        5.16      -0.041
  CSO10                JUNCTION     0.362    0.362     0  01:37        1.78        1.78       0.006
  J12                  JUNCTION     0.000    1.135     0  01:35           0        8.17       9.098
  J4                   JUNCTION     0.000    0.081     0  01:27           0       0.802       0.405
  J6                   JUNCTION     0.000    0.028     0  02:29           0       0.606       0.612
  J2                   JUNCTION     0.000    0.000     0  00:00           0           0       0.000 ltr
  J19                  JUNCTION     0.000    0.271     0  01:46           0        5.98       0.187
  J9                   JUNCTION     0.000    0.075     0  01:49           0        1.66       1.404
  J14                  JUNCTION     0.000    0.124     0  02:58           0        2.67       0.257
  J17                  JUNCTION     0.000    0.033     0  02:14           0       0.727       1.180
  J7                   JUNCTION     0.000    0.127     0  02:12           0        1.04       0.302
  J11                  JUNCTION     0.000    0.487     0  02:12           0        3.63       0.189
  J18                  JUNCTION     0.000    0.202     0  02:02           0        1.53       0.023
  Out_to_WWTP          OUTFALL      0.000    0.271     0  01:48           0        5.97       0.000
  T5                   STORAGE      0.000    0.523     0  01:36           0        2.74      21.872
  T4                   STORAGE      0.000    0.253     0  01:42           0        1.88      20.662
  T6                   STORAGE      0.000    0.928     0  01:45           0        6.47      12.402
  T3                   STORAGE      0.000    1.125     0  01:38           0        7.49      22.105
  T2                   STORAGE      0.000    0.753     0  01:36           0        3.65      31.575
  T1                   STORAGE      0.000    1.303     0  01:41           0        10.6       5.960
  
  
  **********************
  Node Surcharge Summary
  **********************
  
  Surcharging occurs when water rises above the top of the highest conduit.
  ---------------------------------------------------------------------
                                               Max. Height   Min. Depth
                                   Hours       Above Crown    Below Rim
  Node                 Type      Surcharged         Meters       Meters
  ---------------------------------------------------------------------
  CSO7                 JUNCTION        1.80          0.945        0.000
  CSO9                 JUNCTION        1.79          1.682        0.000
  CSO8                 JUNCTION        1.78          1.547        0.000
  CSO10                JUNCTION        1.13          0.560        0.000
  J4                   JUNCTION        1.78          1.146        0.554
  
  
  *********************
  Node Flooding Summary
  *********************
  
  Flooding refers to all water that overflows a node, whether it ponds or not.
  --------------------------------------------------------------------------
                                                             Total   Maximum
                                 Maximum   Time of Max       Flood    Ponded
                        Hours       Rate    Occurrence      Volume     Depth
  Node                 Flooded       CMS   days hr:min    10^6 ltr    Meters
  --------------------------------------------------------------------------
  CSO7                    1.65     0.059      0  01:42       0.146     0.000
  CSO9                    0.77     0.074      0  01:39       0.114     0.000
  CSO8                    0.80     0.366      0  01:37       0.561     0.000
  CSO10                   0.82     0.159      0  01:37       0.245     0.000
  T5                      5.97     0.405      0  01:51       1.748     0.000
  T4                      2.36     0.157      0  03:01       0.512     0.000
  T6                      3.28     0.843      0  01:49       3.582     0.000
  T3                      1.22     0.928      0  03:02       0.929     0.000
  T2                      2.12     0.365      0  03:01       1.131     0.000
  T1                      2.14     0.998      0  01:46       3.501     0.000
  
  
  **********************
  Storage Volume Summary
  **********************
  
  --------------------------------------------------------------------------------------------------
                         Average     Avg  Evap Exfil       Maximum     Max    Time of Max    Maximum
                          Volume    Pcnt  Pcnt  Pcnt        Volume    Pcnt     Occurrence    Outflow
  Storage Unit           1000 m3    Full  Loss  Loss       1000 m3    Full    days hr:min        CMS
  --------------------------------------------------------------------------------------------------
  T5                       0.404      81     0     0         0.500     100       0  01:51      0.000
  T4                       0.376      75     0     0         0.500     100       0  02:29      0.028
  T6                       0.473      79     0     0         0.600     100       0  01:49      0.075
  T3                       1.951      75     0     0         2.600     100       0  02:58      0.124
  T2                       0.771      77     0     0         1.000     100       0  02:14      0.033
  T1                       0.513      73     0     0         0.700     100       0  01:46      0.271
  
  
  ***********************
  Outfall Loading Summary
  ***********************
  
  -----------------------------------------------------------
                         Flow       Avg       Max       Total
                         Freq      Flow      Flow      Volume
  Outfall Node           Pcnt       CMS       CMS    10^6 ltr
  -----------------------------------------------------------
  Out_to_WWTP           99.01     0.214     0.271       5.970
  -----------------------------------------------------------
  System                99.01     0.214     0.271       5.970
  
  
  ********************
  Link Flow Summary
  ********************
  
  -----------------------------------------------------------------------------
                                 Maximum  Time of Max   Maximum    Max/    Max/
                                  |Flow|   Occurrence   |Veloc|    Full    Full
  Link                 Type          CMS  days hr:min     m/sec    Flow   Depth
  -----------------------------------------------------------------------------
  C1                   CONDUIT     0.000     0  00:00      0.00    0.00    0.06
  C6                   CONDUIT     0.072     0  01:42      1.29    1.14    0.78
  C2                   CONDUIT     0.028     0  03:17      0.99    0.03    0.16
  C9                   CONDUIT     0.127     0  02:12      1.30    0.43    0.54
  C16                  CONDUIT     0.486     0  01:51      1.79    0.05    0.15
  C3                   CONDUIT     0.124     0  03:01      1.88    0.05    0.14
  C19                  CONDUIT     0.033     0  03:15      0.64    0.01    0.22
  C11                  CONDUIT     0.152     0  03:34      1.56    0.01    0.12
  C20                  CONDUIT     1.108     0  01:35      3.53    0.03    0.16
  C22                  CONDUIT     0.202     0  02:02      1.66    0.09    0.34
  C12                  CONDUIT     0.075     0  03:30      0.47    0.01    0.29
  C17                  CONDUIT     1.132     0  01:35      3.31    0.06    0.32
  C10                  CONDUIT     0.928     0  01:45      1.65    0.10    0.60
  C13                  CONDUIT     1.125     0  01:38      1.89    0.07    0.76
  C18                  CONDUIT     0.753     0  01:36      1.72    0.03    0.56
  C23                  CONDUIT     1.303     0  01:41      1.81    0.14    0.63
  C4                   CONDUIT     0.523     0  01:36      1.97    0.13    0.62
  C7                   CONDUIT     0.253     0  01:42      1.41    0.06    0.58
  C14                  CONDUIT     0.271     0  01:48      2.08    0.02    0.09
  C5                   CONDUIT     0.081     0  01:27      1.58    1.38    1.00
  C8                   CONDUIT     0.127     0  02:12      1.78    1.60    0.86
  C15                  CONDUIT     0.487     0  02:12      3.45    1.55    0.83
  C21                  CONDUIT     0.202     0  02:02      1.84    1.16    0.69
  V4                   ORIFICE     0.028     0  02:29                      0.35
  V5                   ORIFICE     0.000     0  00:00                      0.00
  V1                   ORIFICE     0.271     0  01:46                      1.00
  V6                   ORIFICE     0.075     0  01:49                      0.43
  V3                   ORIFICE     0.124     0  02:58                      0.65
  V2                   ORIFICE     0.033     0  02:14                      0.24
  
  
  ***************************
  Flow Classification Summary
  ***************************
  
  -------------------------------------------------------------------------------------
                      Adjusted    ---------- Fraction of Time in Flow Class ---------- 
                       /Actual         Up    Down  Sub   Sup   Up    Down  Norm  Inlet 
  Conduit               Length    Dry  Dry   Dry   Crit  Crit  Crit  Crit  Ltd   Ctrl  
  -------------------------------------------------------------------------------------
  C1                      1.00   0.19  0.81  0.00  0.00  0.00  0.00  0.00  0.00  0.00
  C6                      1.00   0.00  0.00  0.00  0.25  0.75  0.00  0.00  0.00  0.00
  C2                      1.00   0.19  0.00  0.00  0.00  0.81  0.00  0.00  0.79  0.00
  C9                      1.00   0.00  0.00  0.00  1.00  0.00  0.00  0.00  1.00  0.00
  C16                     1.00   0.00  0.00  0.00  0.54  0.46  0.00  0.00  0.48  0.00
  C3                      1.00   0.19  0.00  0.00  0.00  0.81  0.00  0.00  0.00  0.00
  C19                     1.00   0.00  0.19  0.00  0.81  0.00  0.00  0.00  0.81  0.00
  C11                     1.00   0.00  0.19  0.00  0.23  0.57  0.00  0.00  0.81  0.00
  C20                     1.00   0.00  0.00  0.00  0.54  0.46  0.00  0.00  0.96  0.00
  C22                     1.00   0.00  0.00  0.00  0.74  0.26  0.00  0.00  1.00  0.00
  C12                     1.00   0.00  0.19  0.00  0.81  0.00  0.00  0.00  0.81  0.00
  C17                     1.00   0.00  0.00  0.00  0.68  0.32  0.00  0.00  0.91  0.00
  C10                     1.00   0.00  0.00  0.00  0.97  0.03  0.00  0.00  0.98  0.00
  C13                     1.00   0.00  0.00  0.00  0.85  0.15  0.00  0.00  0.21  0.00
  C18                     1.00   0.00  0.00  0.00  0.95  0.05  0.00  0.00  0.97  0.00
  C23                     1.00   0.00  0.00  0.00  0.83  0.17  0.00  0.00  0.94  0.00
  C4                      1.00   0.00  0.00  0.00  0.97  0.03  0.00  0.00  0.98  0.00
  C7                      1.00   0.00  0.00  0.00  0.95  0.05  0.00  0.00  0.97  0.00
  C14                     1.00   0.00  0.00  0.00  0.00  0.99  0.00  0.00  0.23  0.00
  C5                      1.00   0.00  0.00  0.00  0.93  0.07  0.00  0.00  0.72  0.00
  C8                      1.00   0.00  0.00  0.00  0.24  0.76  0.00  0.00  0.00  0.00
  C15                     1.00   0.00  0.00  0.00  0.00  1.00  0.00  0.00  0.00  0.00
  C21                     1.00   0.00  0.00  0.00  0.02  0.98  0.00  0.00  0.00  0.00
  
  
  *************************
  Conduit Surcharge Summary
  *************************
  
  ----------------------------------------------------------------------------
                                                           Hours        Hours 
                         --------- Hours Full --------   Above Full   Capacity
  Conduit                Both Ends  Upstream  Dnstream   Normal Flow   Limited
  ----------------------------------------------------------------------------
  C6                          0.01      1.77      0.01      1.68         0.01
  C10                         0.01      0.01      6.35      0.01         0.01
  C13                         0.01      0.01      6.06      0.01         0.01
  C18                         0.01      0.01      6.21      0.01         0.01
  C23                         0.01      0.01      6.34      0.01         0.01
  C4                          0.01      0.01      6.46      0.01         0.01
  C7                          0.01      0.01      6.30      0.01         0.01
  C5                          1.77      1.80      1.87      1.81         1.74
  C8                          0.01      1.79      0.01      1.80         0.01
  C15                         0.01      1.78      0.01      1.82         0.01
  C21                         0.01      1.13      0.01      1.10         0.01
  

  Analysis begun on:  Fri Sep  3 20:08:21 2021
  Analysis ended on:  Fri Sep  3 20:08:21 2021
  Total elapsed time: < 1 sec