
  EPA STORM WATER MANAGEMENT MODEL - VERSION 5.1 (Build 5.3.0.dev0)
  --------------------------------------------------------------

  
  *********************************************************
  NOTE: The summary statistics displayed in this report are
  based on results found at every computational time step,  
  not just on results from each reporting time step.
  *********************************************************
  
  ****************
  Analysis Options
  ****************
  Flow Units ............... CMS
  Process Models:
    Rainfall/Runoff ........ YES
    RDII ................... NO
    Snowmelt ............... NO
    Groundwater ............ NO
    Flow Routing ........... YES
    Ponding Allowed ........ YES
    Water Quality .......... NO
  Infiltration Method ...... HORTON
  Flow Routing Method ...... DYNWAVE
  Surcharge Method ......... EXTRAN
  Starting Date ............ 08/28/2015 08:00:00
  Ending Date .............. 08/28/2015 15:50:00
  Antecedent Dry Days ...... 0.0
  Report Time Step ......... 00:01:00
  Wet Time Step ............ 00:01:00
  Dry Time Step ............ 00:01:00
  Routing Time Step ........ 5.00 sec
  Variable Time Step ....... YES
  Maximum Trials ........... 8
  Number of Threads ........ 1
  Head Tolerance ........... 0.001500 m
  
  
  **************************        Volume         Depth
  Runoff Quantity Continuity     hectare-m            mm
  **************************     ---------       -------
  Total Precipitation ......         1.672         9.278
  Evaporation Loss .........         0.000         0.000
  Infiltration Loss ........         0.000         0.000
  Surface Runoff ...........         1.649         9.149
  Final Storage ............         0.023         0.130
  Continuity Error (%) .....        -0.009
  
  
  **************************        Volume        Volume
  Flow Routing Continuity        hectare-m      10^6 ltr
  **************************     ---------     ---------
  Dry Weather Inflow .......         0.396         3.955
  Wet Weather Inflow .......         1.649        16.487
  Groundwater Inflow .......         0.000         0.000
  RDII Inflow ..............         0.000         0.000
  External Inflow ..........         0.000         0.000
  External Outflow .........         0.582         5.823
  Flooding Loss ............         0.460         4.599
  Evaporation Loss .........         0.000         0.000
  Exfiltration Loss ........         0.000         0.000
  Initial Stored Volume ....         0.000         0.000
  Final Stored Volume ......         0.752         7.525
  Continuity Error (%) .....        12.203
  
  
  *************************
  Highest Continuity Errors
  *************************
  Node T2 (34.16%)
  Node T5 (24.87%)
  Node T4 (21.93%)
  Node T3 (19.93%)
  Node T6 (15.21%)
  
  
  ***************************
  Time-Step Critical Elements
  ***************************
  None
  
  
  ********************************
  Highest Flow Instability Indexes
  ********************************
  Link C13 (2)
  
  
  *************************
  Routing Time Step Summary
  *************************
  Minimum Time Step           :     4.50 sec
  Average Time Step           :     5.00 sec
  Maximum Time Step           :     5.00 sec
  Percent in Steady State     :     0.00
  Average Iterations per Step :     2.22
  Percent Not Converging      :     0.87
  
  
  ***************************
  Subcatchment Runoff Summary
  ***************************
  
  ------------------------------------------------------------------------------------------------------------------------------
                            Total      Total      Total      Total     Imperv       Perv      Total       Total     Peak  Runoff
                           Precip      Runon       Evap      Infil     Runoff     Runoff     Runoff      Runoff   Runoff   Coeff
  Subcatchment                 mm         mm         mm         mm         mm         mm         mm    10^6 ltr      CMS
  ------------------------------------------------------------------------------------------------------------------------------
  SC01                       9.28       0.00       0.00       0.00       9.19       0.00       9.19        3.03     0.60   0.991
  SC02                       9.28       0.00       0.00       0.00       9.19       0.00       9.19        2.09     0.40   0.990
  SC03                       9.28       0.00       0.00       0.00       9.21       0.00       9.21        1.66     0.36   0.993
  SC04                       9.28       0.00       0.00       0.00       9.09       0.00       9.09        0.63     0.09   0.979
  SC05                       9.28       0.00       0.00       0.00       9.19       0.00       9.19        1.43     0.27   0.990
  SC06                       9.28       0.00       0.00       0.00       9.03       0.00       9.03        2.94     0.41   0.974
  SC07                       9.28       0.00       0.00       0.00       9.09       0.00       9.09        0.43     0.06   0.979
  SC08                       9.28       0.00       0.00       0.00       9.16       0.00       9.16        2.57     0.44   0.987
  SC09                       9.28       0.00       0.00       0.00       9.14       0.00       9.14        0.63     0.10   0.985
  SC010                      9.28       0.00       0.00       0.00       9.17       0.00       9.17        1.08     0.19   0.988
  
  
  ******************
  Node Depth Summary
  ******************
  
  ---------------------------------------------------------------------------------
                                 Average  Maximum  Maximum  Time of Max    Reported
                                   Depth    Depth      HGL   Occurrence   Max Depth
  Node                 Type       Meters   Meters   Meters  days hr:min      Meters
  ---------------------------------------------------------------------------------
  J1                   JUNCTION     0.08     0.18    34.18     0  01:33        0.18
  J3                   JUNCTION     0.09     0.12    18.12     0  04:48        0.12
  CSO7                 JUNCTION     0.18     1.20    35.20     0  01:37        1.20
  J5                   JUNCTION     0.07     0.14    32.14     0  01:43        0.14
  CSO9                 JUNCTION     0.19     1.25    41.25     0  01:37        1.25
  J8                   JUNCTION     0.12     0.24    36.24     0  03:01        0.24
  CSO8                 JUNCTION     0.23     1.69    33.69     0  01:35        1.69
  J10                  JUNCTION     0.11     0.27    29.27     0  01:35        0.27
  J13                  JUNCTION     0.07     0.17    29.17     0  01:33        0.17
  J15                  JUNCTION     0.17     0.30    15.30     0  03:02        0.30
  J16                  JUNCTION     0.07     0.19    30.19     0  01:32        0.19
  CSO10                JUNCTION     0.15     0.93    30.93     0  01:29        0.86
  J12                  JUNCTION     0.43     0.67    26.67     0  04:41        0.67
  J4                   JUNCTION     0.17     1.19    34.19     0  02:59        0.77
  J6                   JUNCTION     0.06     0.07    25.07     0  04:00        0.07
  J2                   JUNCTION     0.00     0.00    25.00     0  00:00        0.00
  J19                  JUNCTION     0.14     0.17     8.17     0  02:12        0.17
  J9                   JUNCTION     0.08     0.11    29.11     0  03:36        0.11
  J14                  JUNCTION     0.11     0.15    20.15     0  04:37        0.15
  J17                  JUNCTION     0.06     0.08    20.08     0  04:12        0.08
  J7                   JUNCTION     0.09     0.21    39.21     0  01:40        0.21
  J11                  JUNCTION     0.11     0.29    31.29     0  01:37        0.29
  J18                  JUNCTION     0.06     0.16    29.16     0  01:36        0.16
  Out_to_WWTP          OUTFALL      0.14     0.17     6.17     0  02:11        0.17
  T5                   STORAGE      3.91     5.00    32.00     0  02:26        5.00
  T4                   STORAGE      3.55     5.00    32.00     0  03:12        5.00
  T6                   STORAGE      3.85     5.00    36.00     0  02:09        5.00
  T3                   STORAGE      3.33     4.68    26.68     0  04:37        4.68
  T2                   STORAGE      3.58     5.00    26.00     0  03:18        5.00
  T1                   STORAGE      3.52     5.00    15.00     0  02:11        5.00
  
  
  *******************
  Node Inflow Summary
  *******************
  
  -------------------------------------------------------------------------------------------------
                                  Maximum  Maximum                  Lateral       Total        Flow
                                  Lateral    Total  Time of Max      Inflow      Inflow     Balance
                                   Inflow   Inflow   Occurrence      Volume      Volume       Error
  Node                 Type           CMS      CMS  days hr:min    10^6 ltr    10^6 ltr     Percent
  -------------------------------------------------------------------------------------------------
  J1                   JUNCTION     0.291    0.291     0  01:32        1.99        1.99       0.026
  J3                   JUNCTION     0.000    0.148     0  04:37           0        3.04       1.110
  CSO7                 JUNCTION     0.074    0.074     0  03:01       0.722       0.722       0.060
  J5                   JUNCTION     0.095    0.165     0  03:01       0.754        1.47       0.104
  CSO9                 JUNCTION     0.108    0.108     0  01:38       0.827       0.827       0.037
  J8                   JUNCTION     0.451    0.545     0  03:01        3.88         4.7       0.114
  CSO8                 JUNCTION     0.455    0.455     0  01:35        2.86        2.86       0.011
  J10                  JUNCTION     0.373    0.800     0  01:33        2.04        4.89       0.013
  J13                  JUNCTION     0.415    0.415     0  01:32        2.56        2.56      -0.225
  J15                  JUNCTION     0.000    0.833     0  03:01           0        8.49       0.840
  J16                  JUNCTION     0.613    0.613     0  01:32        3.59        3.59      -0.040
  CSO10                JUNCTION     0.194    0.194     0  01:35        1.22        1.22       0.017
  J12                  JUNCTION     0.000    0.797     0  01:35           0        6.78       5.864
  J4                   JUNCTION     0.000    0.070     0  01:37           0       0.721       0.405
  J6                   JUNCTION     0.000    0.028     0  03:12           0       0.579       0.643
  J2                   JUNCTION     0.000    0.000     0  00:00           0           0       0.000 ltr
  J19                  JUNCTION     0.000    0.271     0  02:11           0        5.83       0.189
  J9                   JUNCTION     0.000    0.075     0  02:09           0        1.61       1.375
  J14                  JUNCTION     0.000    0.120     0  04:37           0        2.47       0.271
  J17                  JUNCTION     0.000    0.033     0  03:18           0       0.687       1.166
  J7                   JUNCTION     0.000    0.108     0  01:37           0       0.826       0.383
  J11                  JUNCTION     0.000    0.455     0  01:35           0        2.86       0.233
  J18                  JUNCTION     0.000    0.194     0  01:35           0        1.22       0.038
  Out_to_WWTP          OUTFALL      0.000    0.271     0  02:12           0        5.82       0.000
  T5                   STORAGE      0.000    0.291     0  01:33           0        1.99      33.104
  T4                   STORAGE      0.000    0.165     0  01:43           0        1.47      28.095
  T6                   STORAGE      0.000    0.534     0  03:01           0         4.7      17.941
  T3                   STORAGE      0.000    0.789     0  01:37           0         6.4      24.893
  T2                   STORAGE      0.000    0.414     0  01:33           0        2.56      51.876
  T1                   STORAGE      0.000    0.794     0  03:02           0        8.42       7.454
  
  
  **********************
  Node Surcharge Summary
  **********************
  
  Surcharging occurs when water rises above the top of the highest conduit.
  ---------------------------------------------------------------------
                                               Max. Height   Min. Depth
                                   Hours       Above Crown    Below Rim
  Node                 Type      Surcharged         Meters       Meters
  ---------------------------------------------------------------------
  CSO7                 JUNCTION        0.97          0.945        0.000
  CSO9                 JUNCTION        0.97          0.931        0.751
  CSO8                 JUNCTION        0.85          1.236        0.311
  CSO10                JUNCTION        0.35          0.490        0.070
  J4                   JUNCTION        0.91          0.893        0.807
  
  
  *********************
  Node Flooding Summary
  *********************
  
  Flooding refers to all water that overflows a node, whether it ponds or not.
  --------------------------------------------------------------------------
                                                             Total   Maximum
                                 Maximum   Time of Max       Flood    Ponded
                        Hours       Rate    Occurrence      Volume     Depth
  Node                 Flooded       CMS   days hr:min    10^6 ltr    Meters
  --------------------------------------------------------------------------
  CSO7                    0.22     0.005      0  01:37       0.001     0.000
  T5                      5.39     0.247      0  03:01       0.999     0.000
  T4                      1.58     0.092      0  03:12       0.129     0.000
  T6                      2.91     0.459      0  03:01       1.866     0.000
  T2                      1.01     0.089      0  03:18       0.085     0.000
  T1                      1.67     0.524      0  03:02       1.520     0.000
  
  
  **********************
  Storage Volume Summary
  **********************
  
  --------------------------------------------------------------------------------------------------
                         Average     Avg  Evap Exfil       Maximum     Max    Time of Max    Maximum
                          Volume    Pcnt  Pcnt  Pcnt        Volume    Pcnt     Occurrence    Outflow
  Storage Unit           1000 m3    Full  Loss  Loss       1000 m3    Full    days hr:min        CMS
  --------------------------------------------------------------------------------------------------
  T5                       0.391      78     0     0         0.500     100       0  02:26      0.000
  T4                       0.355      71     0     0         0.500     100       0  03:12      0.028
  T6                       0.462      77     0     0         0.600     100       0  02:09      0.075
  T3                       1.734      67     0     0         2.433      94       0  04:37      0.270
  T2                       0.716      72     0     0         1.000     100       0  03:18      0.033
  T1                       0.493      70     0     0         0.700     100       0  02:11      0.271
  
  
  ***********************
  Outfall Loading Summary
  ***********************
  
  -----------------------------------------------------------
                         Flow       Avg       Max       Total
                         Freq      Flow      Flow      Volume
  Outfall Node           Pcnt       CMS       CMS    10^6 ltr
  -----------------------------------------------------------
  Out_to_WWTP           99.01     0.209     0.271       5.823
  -----------------------------------------------------------
  System                99.01     0.209     0.271       5.823
  
  
  ********************
  Link Flow Summary
  ********************
  
  -----------------------------------------------------------------------------
                                 Maximum  Time of Max   Maximum    Max/    Max/
                                  |Flow|   Occurrence   |Veloc|    Full    Full
  Link                 Type          CMS  days hr:min     m/sec    Flow   Depth
  -----------------------------------------------------------------------------
  C1                   CONDUIT     0.000     0  00:00      0.00    0.00    0.06
  C6                   CONDUIT     0.070     0  01:43      1.29    1.12    0.73
  C2                   CONDUIT     0.028     0  03:59      0.98    0.03    0.16
  C9                   CONDUIT     0.107     0  01:40      1.27    0.37    0.45
  C16                  CONDUIT     0.453     0  01:37      1.71    0.04    0.14
  C3                   CONDUIT     0.119     0  04:37      1.86    0.05    0.14
  C19                  CONDUIT     0.033     0  04:12      0.65    0.01    0.19
  C11                  CONDUIT     0.147     0  04:48      1.54    0.01    0.10
  C20                  CONDUIT     0.613     0  01:32      3.00    0.02    0.12
  C22                  CONDUIT     0.193     0  01:36      1.63    0.09    0.29
  C12                  CONDUIT     0.075     0  03:36      0.57    0.01    0.20
  C17                  CONDUIT     0.797     0  01:35      3.01    0.04    0.19
  C10                  CONDUIT     0.534     0  03:01      1.65    0.05    0.58
  C13                  CONDUIT     0.789     0  01:37      1.68    0.05    0.67
  C18                  CONDUIT     0.414     0  01:33      1.72    0.02    0.54
  C23                  CONDUIT     0.794     0  03:02      1.65    0.09    0.60
  C4                   CONDUIT     0.291     0  01:33      1.97    0.07    0.59
  C7                   CONDUIT     0.165     0  01:43      1.41    0.04    0.57
  C14                  CONDUIT     0.271     0  02:12      2.08    0.02    0.09
  C5                   CONDUIT     0.070     0  01:37      1.37    1.20    1.00
  C8                   CONDUIT     0.108     0  01:37      1.54    1.36    0.83
  C15                  CONDUIT     0.455     0  01:35      3.24    1.45    0.82
  C21                  CONDUIT     0.194     0  01:35      1.76    1.11    0.68
  V4                   ORIFICE     0.028     0  03:12                      0.35
  V5                   ORIFICE     0.000     0  00:00                      0.00
  V1                   ORIFICE     0.271     0  02:11                      1.00
  V6                   ORIFICE     0.075     0  02:09                      0.43
  V3                   ORIFICE     0.120     0  04:37                      0.65
  V2                   ORIFICE     0.033     0  03:18                      0.24
  
  
  ***************************
  Flow Classification Summary
  ***************************
  
  -------------------------------------------------------------------------------------
                      Adjusted    ---------- Fraction of Time in Flow Class ---------- 
                       /Actual         Up    Down  Sub   Sup   Up    Down  Norm  Inlet 
  Conduit               Length    Dry  Dry   Dry   Crit  Crit  Crit  Crit  Ltd   Ctrl  
  -------------------------------------------------------------------------------------
  C1                      1.00   0.21  0.79  0.00  0.00  0.00  0.00  0.00  0.00  0.00
  C6                      1.00   0.00  0.00  0.00  0.17  0.83  0.00  0.00  0.00  0.00
  C2                      1.00   0.21  0.00  0.00  0.00  0.79  0.00  0.00  0.77  0.00
  C9                      1.00   0.00  0.00  0.00  1.00  0.00  0.00  0.00  1.00  0.00
  C16                     1.00   0.00  0.00  0.00  0.55  0.45  0.00  0.00  0.44  0.00
  C3                      1.00   0.21  0.00  0.00  0.00  0.79  0.00  0.00  0.00  0.00
  C19                     1.00   0.00  0.21  0.00  0.79  0.00  0.00  0.00  0.79  0.00
  C11                     1.00   0.00  0.21  0.00  0.21  0.58  0.00  0.00  0.79  0.00
  C20                     1.00   0.00  0.00  0.00  0.55  0.45  0.00  0.00  0.97  0.00
  C22                     1.00   0.00  0.00  0.00  0.71  0.29  0.00  0.00  1.00  0.00
  C12                     1.00   0.00  0.21  0.00  0.79  0.00  0.00  0.00  0.79  0.00
  C17                     1.00   0.00  0.00  0.00  0.60  0.40  0.00  0.00  0.91  0.00
  C10                     1.00   0.00  0.00  0.00  0.97  0.03  0.00  0.00  0.98  0.00
  C13                     1.00   0.00  0.00  0.00  0.85  0.15  0.00  0.00  0.30  0.00
  C18                     1.00   0.00  0.00  0.00  0.95  0.05  0.00  0.00  0.97  0.00
  C23                     1.00   0.00  0.00  0.00  0.83  0.17  0.00  0.00  0.94  0.00
  C4                      1.00   0.00  0.00  0.00  0.97  0.03  0.00  0.00  0.98  0.00
  C7                      1.00   0.00  0.00  0.00  0.95  0.05  0.00  0.00  0.97  0.00
  C14                     1.00   0.00  0.00  0.00  0.00  0.99  0.00  0.00  0.22  0.00
  C5                      1.00   0.00  0.00  0.00  0.92  0.08  0.00  0.00  0.84  0.00
  C8                      1.00   0.00  0.00  0.00  0.23  0.77  0.00  0.00  0.00  0.00
  C15                     1.00   0.00  0.00  0.00  0.00  1.00  0.00  0.00  0.00  0.00
  C21                     1.00   0.00  0.00  0.00  0.01  0.99  0.00  0.00  0.00  0.00
  
  
  *************************
  Conduit Surcharge Summary
  *************************
  
  ----------------------------------------------------------------------------
                                                           Hours        Hours 
                         --------- Hours Full --------   Above Full   Capacity
  Conduit                Both Ends  Upstream  Dnstream   Normal Flow   Limited
  ----------------------------------------------------------------------------
  C6                          0.01      0.91      0.01      0.55         0.01
  C10                         0.01      0.01      6.27      0.01         0.01
  C13                         0.01      0.01      5.84      0.01         0.01
  C18                         0.01      0.01      5.99      0.01         0.01
  C23                         0.01      0.01      6.25      0.01         0.01
  C4                          0.01      0.01      6.39      0.01         0.01
  C7                          0.01      0.01      6.22      0.01         0.01
  C5                          0.95      0.97      1.26      1.07         0.85
  C8                          0.01      0.98      0.01      0.98         0.01
  C15                         0.01      0.85      0.01      0.96         0.01
  C21                         0.01      0.35      0.01      0.30         0.01
  

  Analysis begun on:  Fri Sep  3 20:14:58 2021
  Analysis ended on:  Fri Sep  3 20:14:58 2021
  Total elapsed time: < 1 sec