
  EPA STORM WATER MANAGEMENT MODEL - VERSION 5.1 (Build 5.3.0.dev0)
  --------------------------------------------------------------

  
  *********************************************************
  NOTE: The summary statistics displayed in this report are
  based on results found at every computational time step,  
  not just on results from each reporting time step.
  *********************************************************
  
  ****************
  Analysis Options
  ****************
  Flow Units ............... CMS
  Process Models:
    Rainfall/Runoff ........ YES
    RDII ................... NO
    Snowmelt ............... NO
    Groundwater ............ NO
    Flow Routing ........... YES
    Ponding Allowed ........ YES
    Water Quality .......... NO
  Infiltration Method ...... HORTON
  Flow Routing Method ...... DYNWAVE
  Surcharge Method ......... EXTRAN
  Starting Date ............ 08/28/2015 08:00:00
  Ending Date .............. 08/28/2015 15:50:00
  Antecedent Dry Days ...... 0.0
  Report Time Step ......... 00:01:00
  Wet Time Step ............ 00:01:00
  Dry Time Step ............ 00:01:00
  Routing Time Step ........ 5.00 sec
  Variable Time Step ....... YES
  Maximum Trials ........... 8
  Number of Threads ........ 1
  Head Tolerance ........... 0.001500 m
  
  
  **************************        Volume         Depth
  Runoff Quantity Continuity     hectare-m            mm
  **************************     ---------       -------
  Total Precipitation ......         1.584         8.789
  Evaporation Loss .........         0.000         0.000
  Infiltration Loss ........         0.000         0.000
  Surface Runoff ...........         1.560         8.657
  Final Storage ............         0.024         0.133
  Continuity Error (%) .....        -0.009
  
  
  **************************        Volume        Volume
  Flow Routing Continuity        hectare-m      10^6 ltr
  **************************     ---------     ---------
  Dry Weather Inflow .......         0.396         3.955
  Wet Weather Inflow .......         1.560        15.599
  Groundwater Inflow .......         0.000         0.000
  RDII Inflow ..............         0.000         0.000
  External Inflow ..........         0.000         0.000
  External Outflow .........         0.541         5.411
  Flooding Loss ............         0.433         4.331
  Evaporation Loss .........         0.000         0.000
  Exfiltration Loss ........         0.000         0.000
  Initial Stored Volume ....         0.000         0.000
  Final Stored Volume ......         0.734         7.337
  Continuity Error (%) .....        12.661
  
  
  *************************
  Highest Continuity Errors
  *************************
  Node T2 (35.71%)
  Node T5 (25.88%)
  Node T4 (23.48%)
  Node T3 (20.33%)
  Node T6 (16.12%)
  
  
  ***************************
  Time-Step Critical Elements
  ***************************
  None
  
  
  ********************************
  Highest Flow Instability Indexes
  ********************************
  Link C13 (2)
  
  
  *************************
  Routing Time Step Summary
  *************************
  Minimum Time Step           :     4.50 sec
  Average Time Step           :     5.00 sec
  Maximum Time Step           :     5.00 sec
  Percent in Steady State     :     0.00
  Average Iterations per Step :     2.18
  Percent Not Converging      :     0.59
  
  
  ***************************
  Subcatchment Runoff Summary
  ***************************
  
  ------------------------------------------------------------------------------------------------------------------------------
                            Total      Total      Total      Total     Imperv       Perv      Total       Total     Peak  Runoff
                           Precip      Runon       Evap      Infil     Runoff     Runoff     Runoff      Runoff   Runoff   Coeff
  Subcatchment                 mm         mm         mm         mm         mm         mm         mm    10^6 ltr      CMS
  ------------------------------------------------------------------------------------------------------------------------------
  SC01                       8.79       0.00       0.00       0.00       8.70       0.00       8.70        2.87     0.89   0.990
  SC02                       8.79       0.00       0.00       0.00       8.70       0.00       8.70        1.98     0.60   0.990
  SC03                       8.79       0.00       0.00       0.00       8.72       0.00       8.72        1.57     0.52   0.992
  SC04                       8.79       0.00       0.00       0.00       8.59       0.00       8.59        0.59     0.15   0.977
  SC05                       8.79       0.00       0.00       0.00       8.70       0.00       8.70        1.36     0.41   0.989
  SC06                       8.79       0.00       0.00       0.00       8.54       0.00       8.54        2.78     0.69   0.971
  SC07                       8.79       0.00       0.00       0.00       8.59       0.00       8.59        0.41     0.11   0.978
  SC08                       8.79       0.00       0.00       0.00       8.67       0.00       8.67        2.43     0.70   0.987
  SC09                       8.79       0.00       0.00       0.00       8.64       0.00       8.64        0.60     0.17   0.984
  SC010                      8.79       0.00       0.00       0.00       8.67       0.00       8.67        1.02     0.30   0.987
  
  
  ******************
  Node Depth Summary
  ******************
  
  ---------------------------------------------------------------------------------
                                 Average  Maximum  Maximum  Time of Max    Reported
                                   Depth    Depth      HGL   Occurrence   Max Depth
  Node                 Type       Meters   Meters   Meters  days hr:min      Meters
  ---------------------------------------------------------------------------------
  J1                   JUNCTION     0.08     0.22    34.22     0  03:01        0.22
  J3                   JUNCTION     0.08     0.12    18.12     0  05:03        0.12
  CSO7                 JUNCTION     0.18     1.20    35.20     0  02:39        1.20
  J5                   JUNCTION     0.07     0.16    32.16     0  03:01        0.16
  CSO9                 JUNCTION     0.22     2.00    42.00     0  02:51        2.00
  J8                   JUNCTION     0.12     0.30    36.30     0  03:01        0.30
  CSO8                 JUNCTION     0.24     2.00    34.00     0  02:49        2.00
  J10                  JUNCTION     0.10     0.30    29.30     0  03:01        0.30
  J13                  JUNCTION     0.07     0.21    29.21     0  03:01        0.21
  J15                  JUNCTION     0.17     0.37    15.37     0  03:02        0.36
  J16                  JUNCTION     0.07     0.23    30.23     0  03:01        0.23
  CSO10                JUNCTION     0.16     1.00    31.00     0  02:48        1.00
  J12                  JUNCTION     0.34     0.53    26.53     0  04:56        0.53
  J4                   JUNCTION     0.17     1.14    34.14     0  02:39        0.77
  J6                   JUNCTION     0.05     0.07    25.07     0  04:21        0.07
  J2                   JUNCTION     0.00     0.00    25.00     0  00:00        0.00
  J19                  JUNCTION     0.14     0.17     8.17     0  02:50        0.17
  J9                   JUNCTION     0.08     0.11    29.11     0  04:14        0.11
  J14                  JUNCTION     0.11     0.15    20.15     0  04:52        0.15
  J17                  JUNCTION     0.05     0.08    20.08     0  04:25        0.08
  J7                   JUNCTION     0.09     0.23    39.23     0  03:05        0.23
  J11                  JUNCTION     0.11     0.30    31.30     0  02:53        0.30
  J18                  JUNCTION     0.06     0.16    29.16     0  03:05        0.16
  Out_to_WWTP          OUTFALL      0.14     0.17     6.17     0  02:49        0.17
  T5                   STORAGE      3.63     5.00    32.00     0  02:52        5.00
  T4                   STORAGE      3.30     5.00    32.00     0  03:34        5.00
  T6                   STORAGE      3.60     5.00    36.00     0  02:45        5.00
  T3                   STORAGE      3.01     4.53    26.53     0  04:52        4.53
  T2                   STORAGE      3.33     5.00    26.00     0  03:50        5.00
  T1                   STORAGE      3.17     5.00    15.00     0  02:49        5.00
  
  
  *******************
  Node Inflow Summary
  *******************
  
  -------------------------------------------------------------------------------------------------
                                  Maximum  Maximum                  Lateral       Total        Flow
                                  Lateral    Total  Time of Max      Inflow      Inflow     Balance
                                   Inflow   Inflow   Occurrence      Volume      Volume       Error
  Node                 Type           CMS      CMS  days hr:min    10^6 ltr    10^6 ltr     Percent
  -------------------------------------------------------------------------------------------------
  J1                   JUNCTION     0.436    0.436     0  03:01        1.92        1.92       0.040
  J3                   JUNCTION     0.000    0.146     0  04:53           0         2.8       1.180
  CSO7                 JUNCTION     0.118    0.118     0  03:01       0.699       0.699       0.065
  J5                   JUNCTION     0.159    0.231     0  03:01        0.72        1.38       0.127
  CSO9                 JUNCTION     0.173    0.173     0  03:01       0.793       0.793       0.064
  J8                   JUNCTION     0.725    0.852     0  03:01        3.72        4.49       0.136
  CSO8                 JUNCTION     0.711    0.711     0  03:01        2.72        2.72       0.021
  J10                  JUNCTION     0.531    1.018     0  03:01        1.96        4.57       0.052
  J13                  JUNCTION     0.622    0.622     0  03:01        2.45        2.45      -0.142
  J15                  JUNCTION     0.000    1.245     0  03:01           0        7.94       0.920
  J16                  JUNCTION     0.911    0.911     0  03:01        3.43        3.43      -0.026
  CSO10                JUNCTION     0.302    0.302     0  03:01        1.16        1.16       0.029
  J12                  JUNCTION     0.000    1.070     0  03:01           0        6.33       4.259
  J4                   JUNCTION     0.000    0.071     0  03:01           0       0.663       0.518
  J6                   JUNCTION     0.000    0.028     0  03:35           0       0.538       0.695
  J2                   JUNCTION     0.000    0.000     0  00:00           0           0       0.000 ltr
  J19                  JUNCTION     0.000    0.271     0  02:49           0        5.42       0.203
  J9                   JUNCTION     0.000    0.075     0  02:45           0        1.51       1.392
  J14                  JUNCTION     0.000    0.118     0  04:52           0        2.27       0.294
  J17                  JUNCTION     0.000    0.033     0  03:50           0       0.641       1.193
  J7                   JUNCTION     0.000    0.127     0  03:05           0       0.775       0.404
  J11                  JUNCTION     0.000    0.486     0  02:53           0        2.62       0.241
  J18                  JUNCTION     0.000    0.202     0  03:05           0        1.11       0.053
  Out_to_WWTP          OUTFALL      0.000    0.271     0  02:51           0        5.41       0.000
  T5                   STORAGE      0.000    0.428     0  03:01           0        1.92      34.910
  T4                   STORAGE      0.000    0.227     0  03:01           0        1.38      30.691
  T6                   STORAGE      0.000    0.833     0  03:01           0        4.49      19.218
  T3                   STORAGE      0.000    1.043     0  03:02           0        6.08      25.523
  T2                   STORAGE      0.000    0.611     0  03:01           0        2.45      55.555
  T1                   STORAGE      0.000    1.178     0  03:02           0        7.86       7.974
  
  
  **********************
  Node Surcharge Summary
  **********************
  
  Surcharging occurs when water rises above the top of the highest conduit.
  ---------------------------------------------------------------------
                                               Max. Height   Min. Depth
                                   Hours       Above Crown    Below Rim
  Node                 Type      Surcharged         Meters       Meters
  ---------------------------------------------------------------------
  CSO7                 JUNCTION        0.73          0.945        0.000
  CSO9                 JUNCTION        0.75          1.682        0.000
  CSO8                 JUNCTION        0.68          1.547        0.000
  CSO10                JUNCTION        0.41          0.560        0.000
  J4                   JUNCTION        0.69          0.841        0.859
  
  
  *********************
  Node Flooding Summary
  *********************
  
  Flooding refers to all water that overflows a node, whether it ponds or not.
  --------------------------------------------------------------------------
                                                             Total   Maximum
                                 Maximum   Time of Max       Flood    Ponded
                        Hours       Rate    Occurrence      Volume     Depth
  Node                 Flooded       CMS   days hr:min    10^6 ltr    Meters
  --------------------------------------------------------------------------
  CSO7                    0.54     0.047      0  03:01       0.035     0.000
  CSO9                    0.24     0.046      0  03:01       0.017     0.000
  CSO8                    0.27     0.225      0  03:01       0.095     0.000
  CSO10                   0.29     0.100      0  03:01       0.044     0.000
  T5                      4.95     0.428      0  03:01       0.922     0.000
  T4                      1.37     0.052      0  03:34       0.073     0.000
  T6                      2.43     0.758      0  03:01       1.746     0.000
  T2                      0.59     0.020      0  03:50       0.016     0.000
  T1                      1.12     0.908      0  03:02       1.383     0.000
  
  
  **********************
  Storage Volume Summary
  **********************
  
  --------------------------------------------------------------------------------------------------
                         Average     Avg  Evap Exfil       Maximum     Max    Time of Max    Maximum
                          Volume    Pcnt  Pcnt  Pcnt        Volume    Pcnt     Occurrence    Outflow
  Storage Unit           1000 m3    Full  Loss  Loss       1000 m3    Full    days hr:min        CMS
  --------------------------------------------------------------------------------------------------
  T5                       0.363      73     0     0         0.500     100       0  02:52      0.000
  T4                       0.330      66     0     0         0.500     100       0  03:34      0.028
  T6                       0.431      72     0     0         0.600     100       0  02:45      0.075
  T3                       1.565      60     0     0         2.357      91       0  04:52      0.239
  T2                       0.667      67     0     0         1.000     100       0  03:50      0.033
  T1                       0.444      63     0     0         0.700     100       0  02:49      0.271
  
  
  ***********************
  Outfall Loading Summary
  ***********************
  
  -----------------------------------------------------------
                         Flow       Avg       Max       Total
                         Freq      Flow      Flow      Volume
  Outfall Node           Pcnt       CMS       CMS    10^6 ltr
  -----------------------------------------------------------
  Out_to_WWTP           99.01     0.194     0.271       5.411
  -----------------------------------------------------------
  System                99.01     0.194     0.271       5.411
  
  
  ********************
  Link Flow Summary
  ********************
  
  -----------------------------------------------------------------------------
                                 Maximum  Time of Max   Maximum    Max/    Max/
                                  |Flow|   Occurrence   |Veloc|    Full    Full
  Link                 Type          CMS  days hr:min     m/sec    Flow   Depth
  -----------------------------------------------------------------------------
  C1                   CONDUIT     0.000     0  00:00      0.00    0.00    0.06
  C6                   CONDUIT     0.071     0  03:01      1.29    1.14    0.77
  C2                   CONDUIT     0.028     0  04:21      0.96    0.03    0.16
  C9                   CONDUIT     0.127     0  03:05      1.28    0.43    0.53
  C16                  CONDUIT     0.488     0  02:58      1.77    0.05    0.15
  C3                   CONDUIT     0.118     0  04:53      1.85    0.05    0.14
  C19                  CONDUIT     0.033     0  04:25      0.65    0.01    0.22
  C11                  CONDUIT     0.146     0  05:03      1.53    0.01    0.12
  C20                  CONDUIT     0.894     0  03:01      3.08    0.03    0.15
  C22                  CONDUIT     0.202     0  03:05      1.58    0.09    0.33
  C12                  CONDUIT     0.075     0  04:14      0.56    0.01    0.16
  C17                  CONDUIT     0.995     0  03:01      3.10    0.05    0.16
  C10                  CONDUIT     0.833     0  03:01      1.65    0.09    0.60
  C13                  CONDUIT     1.043     0  03:02      1.31    0.06    0.63
  C18                  CONDUIT     0.611     0  03:01      1.72    0.02    0.55
  C23                  CONDUIT     1.178     0  03:02      1.29    0.13    0.62
  C4                   CONDUIT     0.428     0  03:01      1.97    0.10    0.61
  C7                   CONDUIT     0.227     0  03:01      1.41    0.06    0.58
  C14                  CONDUIT     0.271     0  02:51      2.08    0.02    0.09
  C5                   CONDUIT     0.071     0  03:01      1.39    1.22    1.00
  C8                   CONDUIT     0.127     0  03:05      1.75    1.60    0.86
  C15                  CONDUIT     0.486     0  02:53      3.42    1.55    0.83
  C21                  CONDUIT     0.202     0  03:05      1.82    1.16    0.69
  V4                   ORIFICE     0.028     0  03:35                      0.35
  V5                   ORIFICE     0.000     0  00:00                      0.00
  V1                   ORIFICE     0.271     0  02:49                      1.00
  V6                   ORIFICE     0.075     0  02:45                      0.43
  V3                   ORIFICE     0.118     0  04:52                      0.65
  V2                   ORIFICE     0.033     0  03:50                      0.24
  
  
  ***************************
  Flow Classification Summary
  ***************************
  
  -------------------------------------------------------------------------------------
                      Adjusted    ---------- Fraction of Time in Flow Class ---------- 
                       /Actual         Up    Down  Sub   Sup   Up    Down  Norm  Inlet 
  Conduit               Length    Dry  Dry   Dry   Crit  Crit  Crit  Crit  Ltd   Ctrl  
  -------------------------------------------------------------------------------------
  C1                      1.00   0.26  0.74  0.00  0.00  0.00  0.00  0.00  0.00  0.00
  C6                      1.00   0.00  0.00  0.00  0.12  0.88  0.00  0.00  0.00  0.00
  C2                      1.00   0.26  0.00  0.00  0.00  0.74  0.00  0.00  0.73  0.00
  C9                      1.00   0.00  0.00  0.00  1.00  0.00  0.00  0.00  1.00  0.00
  C16                     1.00   0.00  0.00  0.00  0.55  0.45  0.00  0.00  0.38  0.00
  C3                      1.00   0.26  0.00  0.00  0.00  0.74  0.00  0.00  0.00  0.00
  C19                     1.00   0.00  0.26  0.00  0.74  0.00  0.00  0.00  0.74  0.00
  C11                     1.00   0.00  0.26  0.00  0.18  0.56  0.00  0.00  0.74  0.00
  C20                     1.00   0.00  0.00  0.00  0.53  0.47  0.00  0.00  0.98  0.00
  C22                     1.00   0.00  0.00  0.00  0.69  0.31  0.00  0.00  1.00  0.00
  C12                     1.00   0.00  0.26  0.00  0.74  0.00  0.00  0.00  0.74  0.00
  C17                     1.00   0.00  0.00  0.00  0.57  0.43  0.00  0.00  0.91  0.00
  C10                     1.00   0.00  0.00  0.00  0.97  0.03  0.00  0.00  0.98  0.00
  C13                     1.00   0.00  0.00  0.00  0.87  0.13  0.00  0.00  0.33  0.00
  C18                     1.00   0.00  0.00  0.00  0.95  0.05  0.00  0.00  0.97  0.00
  C23                     1.00   0.00  0.00  0.00  0.81  0.19  0.00  0.00  0.94  0.00
  C4                      1.00   0.00  0.00  0.00  0.97  0.03  0.00  0.00  0.98  0.00
  C7                      1.00   0.00  0.00  0.00  0.95  0.05  0.00  0.00  0.97  0.00
  C14                     1.00   0.00  0.00  0.00  0.00  0.99  0.00  0.00  0.21  0.00
  C5                      1.00   0.00  0.00  0.00  0.89  0.11  0.00  0.00  0.88  0.00
  C8                      1.00   0.00  0.00  0.00  0.14  0.86  0.00  0.00  0.00  0.00
  C15                     1.00   0.00  0.00  0.00  0.00  1.00  0.00  0.00  0.00  0.00
  C21                     1.00   0.00  0.00  0.00  0.00  1.00  0.00  0.00  0.00  0.00
  
  
  *************************
  Conduit Surcharge Summary
  *************************
  
  ----------------------------------------------------------------------------
                                                           Hours        Hours 
                         --------- Hours Full --------   Above Full   Capacity
  Conduit                Both Ends  Upstream  Dnstream   Normal Flow   Limited
  ----------------------------------------------------------------------------
  C6                          0.01      0.69      0.01      0.59         0.01
  C10                         0.01      0.01      5.93      0.01         0.01
  C13                         0.01      0.01      5.21      0.01         0.01
  C18                         0.01      0.01      5.35      0.01         0.01
  C23                         0.01      0.01      5.72      0.01         0.01
  C4                          0.01      0.01      6.12      0.01         0.01
  C7                          0.01      0.01      5.83      0.01         0.01
  C5                          0.73      0.73      0.85      0.81         0.70
  C8                          0.01      0.75      0.01      0.78         0.01
  C15                         0.01      0.68      0.01      0.78         0.01
  C21                         0.01      0.41      0.01      0.41         0.01
  

  Analysis begun on:  Fri Sep  3 20:00:09 2021
  Analysis ended on:  Fri Sep  3 20:00:09 2021
  Total elapsed time: < 1 sec