
  EPA STORM WATER MANAGEMENT MODEL - VERSION 5.1 (Build 5.3.0.dev0)
  --------------------------------------------------------------

  
  *********************************************************
  NOTE: The summary statistics displayed in this report are
  based on results found at every computational time step,  
  not just on results from each reporting time step.
  *********************************************************
  
  ****************
  Analysis Options
  ****************
  Flow Units ............... CMS
  Process Models:
    Rainfall/Runoff ........ YES
    RDII ................... NO
    Snowmelt ............... NO
    Groundwater ............ NO
    Flow Routing ........... YES
    Ponding Allowed ........ YES
    Water Quality .......... NO
  Infiltration Method ...... HORTON
  Flow Routing Method ...... DYNWAVE
  Surcharge Method ......... EXTRAN
  Starting Date ............ 08/28/2015 08:00:00
  Ending Date .............. 08/28/2015 15:50:00
  Antecedent Dry Days ...... 0.0
  Report Time Step ......... 00:01:00
  Wet Time Step ............ 00:01:00
  Dry Time Step ............ 00:01:00
  Routing Time Step ........ 5.00 sec
  Variable Time Step ....... YES
  Maximum Trials ........... 8
  Number of Threads ........ 1
  Head Tolerance ........... 0.001500 m
  
  
  **************************        Volume         Depth
  Runoff Quantity Continuity     hectare-m            mm
  **************************     ---------       -------
  Total Precipitation ......         1.970        10.933
  Evaporation Loss .........         0.000         0.000
  Infiltration Loss ........         0.000         0.000
  Surface Runoff ...........         1.947        10.804
  Final Storage ............         0.023         0.130
  Continuity Error (%) .....        -0.006
  
  
  **************************        Volume        Volume
  Flow Routing Continuity        hectare-m      10^6 ltr
  **************************     ---------     ---------
  Dry Weather Inflow .......         0.396         3.955
  Wet Weather Inflow .......         1.947        19.469
  Groundwater Inflow .......         0.000         0.000
  RDII Inflow ..............         0.000         0.000
  External Inflow ..........         0.000         0.000
  External Outflow .........         0.584         5.838
  Flooding Loss ............         0.689         6.894
  Evaporation Loss .........         0.000         0.000
  Exfiltration Loss ........         0.000         0.000
  Initial Stored Volume ....         0.000         0.000
  Final Stored Volume ......         0.800         8.003
  Continuity Error (%) .....        11.483
  
  
  *************************
  Highest Continuity Errors
  *************************
  Node T2 (30.19%)
  Node T4 (21.18%)
  Node T3 (20.88%)
  Node T5 (17.66%)
  Node T6 (15.58%)
  
  
  ***************************
  Time-Step Critical Elements
  ***************************
  None
  
  
  ********************************
  Highest Flow Instability Indexes
  ********************************
  All links are stable.
  
  
  *************************
  Routing Time Step Summary
  *************************
  Minimum Time Step           :     0.47 sec
  Average Time Step           :     5.00 sec
  Maximum Time Step           :     5.00 sec
  Percent in Steady State     :     0.00
  Average Iterations per Step :     2.19
  Percent Not Converging      :     0.50
  
  
  ***************************
  Subcatchment Runoff Summary
  ***************************
  
  ------------------------------------------------------------------------------------------------------------------------------
                            Total      Total      Total      Total     Imperv       Perv      Total       Total     Peak  Runoff
                           Precip      Runon       Evap      Infil     Runoff     Runoff     Runoff      Runoff   Runoff   Coeff
  Subcatchment                 mm         mm         mm         mm         mm         mm         mm    10^6 ltr      CMS
  ------------------------------------------------------------------------------------------------------------------------------
  SC01                      10.93       0.00       0.00       0.00      10.85       0.00      10.85        3.58     0.88   0.992
  SC02                      10.93       0.00       0.00       0.00      10.84       0.00      10.84        2.47     0.60   0.992
  SC03                      10.93       0.00       0.00       0.00      10.86       0.00      10.86        1.96     0.51   0.994
  SC04                      10.93       0.00       0.00       0.00      10.74       0.00      10.74        0.74     0.16   0.982
  SC05                      10.93       0.00       0.00       0.00      10.84       0.00      10.84        1.69     0.41   0.992
  SC06                      10.93       0.00       0.00       0.00      10.69       0.00      10.69        3.48     0.69   0.977
  SC07                      10.93       0.00       0.00       0.00      10.74       0.00      10.74        0.51     0.11   0.982
  SC08                      10.93       0.00       0.00       0.00      10.82       0.00      10.82        3.03     0.70   0.989
  SC09                      10.93       0.00       0.00       0.00      10.79       0.00      10.79        0.74     0.17   0.987
  SC010                     10.93       0.00       0.00       0.00      10.82       0.00      10.82        1.27     0.30   0.990
  
  
  ******************
  Node Depth Summary
  ******************
  
  ---------------------------------------------------------------------------------
                                 Average  Maximum  Maximum  Time of Max    Reported
                                   Depth    Depth      HGL   Occurrence   Max Depth
  Node                 Type       Meters   Meters   Meters  days hr:min      Meters
  ---------------------------------------------------------------------------------
  J1                   JUNCTION     0.08     0.22    34.22     0  02:19        0.22
  J3                   JUNCTION     0.10     0.14    18.14     0  04:19        0.14
  CSO7                 JUNCTION     0.24     1.20    35.20     0  02:04        1.20
  J5                   JUNCTION     0.07     0.16    32.16     0  02:23        0.16
  CSO9                 JUNCTION     0.32     2.00    42.00     0  02:08        2.00
  J8                   JUNCTION     0.12     0.30    36.30     0  02:25        0.30
  CSO8                 JUNCTION     0.34     2.00    34.00     0  02:06        2.00
  J10                  JUNCTION     0.11     0.30    29.30     0  02:18        0.30
  J13                  JUNCTION     0.07     0.21    29.21     0  02:19        0.21
  J15                  JUNCTION     0.18     0.37    15.37     0  02:22        0.37
  J16                  JUNCTION     0.08     0.23    30.23     0  02:18        0.23
  CSO10                JUNCTION     0.20     1.00    31.00     0  02:05        1.00
  J12                  JUNCTION     0.65     1.02    27.02     0  03:30        1.02
  J4                   JUNCTION     0.20     1.27    34.27     0  02:04        0.76
  J6                   JUNCTION     0.06     0.07    25.07     0  03:48        0.07
  J2                   JUNCTION     0.07     0.08    25.08     0  03:17        0.08
  J19                  JUNCTION     0.14     0.17     8.17     0  02:18        0.17
  J9                   JUNCTION     0.09     0.11    29.11     0  04:04        0.11
  J14                  JUNCTION     0.11     0.15    20.15     0  05:01        0.15
  J17                  JUNCTION     0.06     0.08    20.08     0  03:48        0.08
  J7                   JUNCTION     0.09     0.23    39.23     0  02:44        0.23
  J11                  JUNCTION     0.11     0.30    31.30     0  02:44        0.30
  J18                  JUNCTION     0.06     0.16    29.16     0  02:43        0.16
  Out_to_WWTP          OUTFALL      0.14     0.17     6.17     0  04:29        0.17
  T5                   STORAGE      3.54     5.00    32.00     0  02:29        5.00
  T4                   STORAGE      3.51     5.00    32.00     0  03:00        5.00
  T6                   STORAGE      3.71     5.00    36.00     0  02:22        5.00
  T3                   STORAGE      3.50     5.00    27.00     0  03:25        5.00
  T2                   STORAGE      3.57     5.00    26.00     0  02:50        5.00
  T1                   STORAGE      3.55     5.00    15.00     0  02:17        5.00
  
  
  *******************
  Node Inflow Summary
  *******************
  
  -------------------------------------------------------------------------------------------------
                                  Maximum  Maximum                  Lateral       Total        Flow
                                  Lateral    Total  Time of Max      Inflow      Inflow     Balance
                                   Inflow   Inflow   Occurrence      Volume      Volume       Error
  Node                 Type           CMS      CMS  days hr:min    10^6 ltr    10^6 ltr     Percent
  -------------------------------------------------------------------------------------------------
  J1                   JUNCTION     0.432    0.432     0  02:19        2.25        2.25       0.014
  J3                   JUNCTION     0.000    0.191     0  04:02           0        3.54       1.076
  CSO7                 JUNCTION     0.118    0.118     0  02:22       0.801       0.801       0.060
  J5                   JUNCTION     0.160    0.232     0  02:22       0.869        1.57       0.092
  CSO9                 JUNCTION     0.174    0.174     0  02:21       0.941       0.941       0.044
  J8                   JUNCTION     0.727    0.854     0  02:24        4.42         5.3       0.091
  CSO8                 JUNCTION     0.714    0.714     0  02:20        3.32        3.32       0.014
  J10                  JUNCTION     0.521    1.007     0  02:17        2.34        5.37      -0.030
  J13                  JUNCTION     0.618    0.618     0  02:18        2.93        2.93      -0.162
  J15                  JUNCTION     0.000    1.248     0  02:19           0        9.59       0.892
  J16                  JUNCTION     0.904    0.904     0  02:18        4.13        4.13      -0.012
  CSO10                JUNCTION     0.302    0.302     0  02:19        1.41        1.41       0.012
  J12                  JUNCTION     0.000    1.070     0  02:18           0        6.95       9.329
  J4                   JUNCTION     0.000    0.074     0  02:04           0       0.707       0.473
  J6                   JUNCTION     0.000    0.028     0  03:00           0       0.556       0.724
  J2                   JUNCTION     0.000    0.039     0  02:29           0        0.86       0.592
  J19                  JUNCTION     0.000    0.271     0  02:17           0        5.85       0.203
  J9                   JUNCTION     0.000    0.075     0  02:23           0        1.49       0.409
  J14                  JUNCTION     0.000    0.124     0  04:00           0        2.14       0.342
  J17                  JUNCTION     0.000    0.033     0  02:50           0       0.678       0.980
  J7                   JUNCTION     0.000    0.127     0  02:44           0       0.883       0.353
  J11                  JUNCTION     0.000    0.486     0  02:44           0        3.03       0.208
  J18                  JUNCTION     0.000    0.202     0  02:43           0        1.28       0.064
  Out_to_WWTP          OUTFALL      0.000    0.271     0  02:19           0        5.84       0.000
  T5                   STORAGE      0.000    0.432     0  02:19           0        2.25      21.449
  T4                   STORAGE      0.000    0.232     0  02:23           0        1.57      26.877
  T6                   STORAGE      0.000    0.853     0  02:25           0         5.3      18.448
  T3                   STORAGE      0.000    1.061     0  02:21           0        6.36      26.385
  T2                   STORAGE      0.000    0.618     0  02:19           0        2.94      43.249
  T1                   STORAGE      0.000    1.232     0  02:22           0         9.5       7.999
  
  
  **********************
  Node Surcharge Summary
  **********************
  
  Surcharging occurs when water rises above the top of the highest conduit.
  ---------------------------------------------------------------------
                                               Max. Height   Min. Depth
                                   Hours       Above Crown    Below Rim
  Node                 Type      Surcharged         Meters       Meters
  ---------------------------------------------------------------------
  CSO7                 JUNCTION        1.16          0.945        0.000
  CSO9                 JUNCTION        1.18          1.682        0.000
  CSO8                 JUNCTION        1.16          1.547        0.000
  CSO10                JUNCTION        0.91          0.560        0.000
  J4                   JUNCTION        1.13          0.970        0.730
  
  
  *********************
  Node Flooding Summary
  *********************
  
  Flooding refers to all water that overflows a node, whether it ponds or not.
  --------------------------------------------------------------------------
                                                             Total   Maximum
                                 Maximum   Time of Max       Flood    Ponded
                        Hours       Rate    Occurrence      Volume     Depth
  Node                 Flooded       CMS   days hr:min    10^6 ltr    Meters
  --------------------------------------------------------------------------
  CSO7                    0.99     0.046      0  02:22       0.094     0.000
  CSO9                    0.59     0.046      0  02:21       0.057     0.000
  CSO8                    0.63     0.228      0  02:20       0.287     0.000
  CSO10                   0.65     0.100      0  02:19       0.128     0.000
  T5                      1.38     0.335      0  02:29       0.595     0.000
  T4                      1.90     0.145      0  03:00       0.226     0.000
  T6                      2.70     0.778      0  02:25       2.390     0.000
  T3                      1.01     0.420      0  03:32       0.316     0.000
  T2                      1.87     0.323      0  02:50       0.442     0.000
  T1                      1.40     0.961      0  02:22       2.359     0.000
  
  
  **********************
  Storage Volume Summary
  **********************
  
  --------------------------------------------------------------------------------------------------
                         Average     Avg  Evap Exfil       Maximum     Max    Time of Max    Maximum
                          Volume    Pcnt  Pcnt  Pcnt        Volume    Pcnt     Occurrence    Outflow
  Storage Unit           1000 m3    Full  Loss  Loss       1000 m3    Full    days hr:min        CMS
  --------------------------------------------------------------------------------------------------
  T5                       0.354      71     0     0         0.500     100       0  02:29      0.039
  T4                       0.351      70     0     0         0.500     100       0  03:00      0.028
  T6                       0.446      74     0     0         0.600     100       0  02:22      0.075
  T3                       1.822      70     0     0         2.600     100       0  03:25      0.302
  T2                       0.714      71     0     0         1.000     100       0  02:50      0.033
  T1                       0.497      71     0     0         0.700     100       0  02:17      0.271
  
  
  ***********************
  Outfall Loading Summary
  ***********************
  
  -----------------------------------------------------------
                         Flow       Avg       Max       Total
                         Freq      Flow      Flow      Volume
  Outfall Node           Pcnt       CMS       CMS    10^6 ltr
  -----------------------------------------------------------
  Out_to_WWTP           99.01     0.209     0.271       5.838
  -----------------------------------------------------------
  System                99.01     0.209     0.271       5.838
  
  
  ********************
  Link Flow Summary
  ********************
  
  -----------------------------------------------------------------------------
                                 Maximum  Time of Max   Maximum    Max/    Max/
                                  |Flow|   Occurrence   |Veloc|    Full    Full
  Link                 Type          CMS  days hr:min     m/sec    Flow   Depth
  -----------------------------------------------------------------------------
  C1                   CONDUIT     0.039     0  03:17      1.08    0.01    0.11
  C6                   CONDUIT     0.072     0  02:23      1.29    1.14    0.77
  C2                   CONDUIT     0.028     0  03:47      1.01    0.03    0.18
  C9                   CONDUIT     0.127     0  02:44      1.29    0.43    0.53
  C16                  CONDUIT     0.489     0  02:13      1.79    0.05    0.15
  C3                   CONDUIT     0.124     0  05:02      1.81    0.05    0.14
  C19                  CONDUIT     0.033     0  03:48      0.65    0.01    0.22
  C11                  CONDUIT     0.191     0  04:19      1.74    0.01    0.12
  C20                  CONDUIT     0.903     0  02:18      3.08    0.03    0.15
  C22                  CONDUIT     0.202     0  02:43      1.58    0.09    0.34
  C12                  CONDUIT     0.075     0  04:04      0.59    0.01    0.28
  C17                  CONDUIT     1.004     0  02:18      3.11    0.05    0.29
  C10                  CONDUIT     0.853     0  02:25      1.66    0.09    0.60
  C13                  CONDUIT     1.061     0  02:21      1.45    0.06    0.75
  C18                  CONDUIT     0.618     0  02:19      1.72    0.02    0.55
  C23                  CONDUIT     1.232     0  02:22      1.24    0.14    0.62
  C4                   CONDUIT     0.432     0  02:19      1.98    0.10    0.61
  C7                   CONDUIT     0.232     0  02:23      1.43    0.06    0.58
  C14                  CONDUIT     0.271     0  02:19      2.08    0.02    0.09
  C5                   CONDUIT     0.074     0  02:04      1.44    1.26    1.00
  C8                   CONDUIT     0.127     0  02:44      1.75    1.60    0.86
  C15                  CONDUIT     0.486     0  02:44      3.42    1.55    0.83
  C21                  CONDUIT     0.202     0  02:43      1.83    1.16    0.69
  V4                   ORIFICE     0.028     0  03:00                      0.35
  V5                   ORIFICE     0.039     0  02:29                      1.00
  V1                   ORIFICE     0.271     0  02:17                      1.00
  V6                   ORIFICE     0.075     0  02:23                      0.43
  V3                   ORIFICE     0.124     0  04:00                      0.65
  V2                   ORIFICE     0.033     0  02:50                      0.24
  
  
  ***************************
  Flow Classification Summary
  ***************************
  
  -------------------------------------------------------------------------------------
                      Adjusted    ---------- Fraction of Time in Flow Class ---------- 
                       /Actual         Up    Down  Sub   Sup   Up    Down  Norm  Inlet 
  Conduit               Length    Dry  Dry   Dry   Crit  Crit  Crit  Crit  Ltd   Ctrl  
  -------------------------------------------------------------------------------------
  C1                      1.00   0.00  0.00  0.00  0.22  0.78  0.00  0.00  0.94  0.00
  C6                      1.00   0.00  0.00  0.00  0.17  0.83  0.00  0.00  0.00  0.00
  C2                      1.00   0.00  0.00  0.00  0.49  0.51  0.00  0.00  0.95  0.00
  C9                      1.00   0.00  0.00  0.00  1.00  0.00  0.00  0.00  1.00  0.00
  C16                     1.00   0.00  0.00  0.00  0.56  0.44  0.00  0.00  0.48  0.00
  C3                      1.00   0.00  0.00  0.00  0.05  0.95  0.00  0.00  0.46  0.00
  C19                     1.00   0.00  0.00  0.00  1.00  0.00  0.00  0.00  1.00  0.00
  C11                     1.00   0.00  0.00  0.00  0.36  0.64  0.00  0.00  1.00  0.00
  C20                     1.00   0.00  0.00  0.00  0.54  0.46  0.00  0.00  0.98  0.00
  C22                     1.00   0.00  0.00  0.00  0.74  0.25  0.00  0.00  1.00  0.00
  C12                     1.00   0.00  0.00  0.00  1.00  0.00  0.00  0.00  1.00  0.00
  C17                     1.00   0.00  0.00  0.00  0.63  0.37  0.00  0.00  0.94  0.00
  C10                     1.00   0.00  0.00  0.00  0.96  0.04  0.00  0.00  0.97  0.00
  C13                     1.00   0.00  0.00  0.00  0.87  0.13  0.00  0.00  0.26  0.00
  C18                     1.00   0.00  0.00  0.00  0.94  0.06  0.00  0.00  0.97  0.00
  C23                     1.00   0.00  0.00  0.00  0.86  0.14  0.00  0.00  0.94  0.00
  C4                      1.00   0.00  0.00  0.00  0.96  0.04  0.00  0.00  0.98  0.00
  C7                      1.00   0.00  0.00  0.00  0.94  0.06  0.00  0.00  0.97  0.00
  C14                     1.00   0.00  0.00  0.00  0.00  0.99  0.00  0.00  0.42  0.00
  C5                      1.00   0.00  0.00  0.00  0.90  0.10  0.00  0.00  0.83  0.00
  C8                      1.00   0.00  0.00  0.00  0.18  0.82  0.00  0.00  0.00  0.00
  C15                     1.00   0.00  0.00  0.00  0.00  1.00  0.00  0.00  0.00  0.00
  C21                     1.00   0.00  0.00  0.00  0.01  0.99  0.00  0.00  0.00  0.00
  
  
  *************************
  Conduit Surcharge Summary
  *************************
  
  ----------------------------------------------------------------------------
                                                           Hours        Hours 
                         --------- Hours Full --------   Above Full   Capacity
  Conduit                Both Ends  Upstream  Dnstream   Normal Flow   Limited
  ----------------------------------------------------------------------------
  C6                          0.01      1.13      0.01      1.03         0.01
  C10                         0.01      0.01      5.96      0.01         0.01
  C13                         0.01      0.01      5.59      0.01         0.01
  C18                         0.01      0.01      5.66      0.01         0.01
  C23                         0.01      0.01      6.02      0.01         0.01
  C4                          0.01      0.01      6.13      0.01         0.01
  C7                          0.01      0.01      5.90      0.01         0.01
  C5                          1.15      1.16      1.25      1.20         1.12
  C8                          0.01      1.18      0.01      1.20         0.01
  C15                         0.01      1.16      0.01      1.23         0.01
  C21                         0.01      0.91      0.01      0.86         0.01
  

  Analysis begun on:  Tue Aug 31 13:00:55 2021
  Analysis ended on:  Tue Aug 31 13:00:55 2021
  Total elapsed time: < 1 sec