
  EPA STORM WATER MANAGEMENT MODEL - VERSION 5.1 (Build 5.3.0.dev0)
  --------------------------------------------------------------

  WARNING 04: minimum elevation drop used for Conduit WS02004404WS02004405
  WARNING 03: negative offset ignored for Link YS02001904YS02001907
  
  *********************************************************
  NOTE: The summary statistics displayed in this report are
  based on results found at every computational time step,  
  not just on results from each reporting time step.
  *********************************************************
  
  ****************
  Analysis Options
  ****************
  Flow Units ............... LPS
  Process Models:
    Rainfall/Runoff ........ YES
    RDII ................... NO
    Snowmelt ............... NO
    Groundwater ............ NO
    Flow Routing ........... YES
    Ponding Allowed ........ NO
    Water Quality .......... YES
  Infiltration Method ...... HORTON
  Flow Routing Method ...... DYNWAVE
  Surcharge Method ......... EXTRAN
  Starting Date ............ 08/28/2015 08:00:00
  Ending Date .............. 08/28/2015 15:50:00
  Antecedent Dry Days ...... 8.0
  Report Time Step ......... 00:01:00
  Wet Time Step ............ 00:01:00
  Dry Time Step ............ 00:01:00
  Routing Time Step ........ 5.00 sec
  Variable Time Step ....... YES
  Maximum Trials ........... 8
  Number of Threads ........ 4
  Head Tolerance ........... 0.001500 m
  
  
  **************************        Volume         Depth
  Runoff Quantity Continuity     hectare-m            mm
  **************************     ---------       -------
  Total Precipitation ......        10.887        23.836
  Evaporation Loss .........         0.000         0.000
  Infiltration Loss ........         1.411         3.089
  Surface Runoff ...........         8.292        18.155
  Final Storage ............         1.186         2.596
  Continuity Error (%) .....        -0.016
  
  
  **************************           COD            SS            TN            TP         NH4-N
  Runoff Quality Continuity             kg            kg            kg            kg            kg
  **************************    ----------    ----------    ----------    ----------    ----------
  Initial Buildup ..........     41378.656     70582.865      1804.177       168.684      1032.807
  Surface Buildup ..........        41.425        91.431         2.568         0.227         1.442
  Wet Deposition ...........         0.000         0.000         0.000         0.000         0.000
  Sweeping Removal .........         0.000         0.000         0.000         0.000         0.000
  Infiltration Loss ........       164.554       320.127         3.263         0.236         1.574
  BMP Removal ..............         0.000         0.000         0.000         0.000         0.000
  Surface Runoff ...........      9366.500     18283.806       183.722        12.955        88.133
  Remaining Buildup ........     31885.964     52064.522      1619.692       155.715       944.511
  Continuity Error (%) .....         0.007         0.008         0.004         0.003         0.003
  
  
  **************************        Volume        Volume
  Flow Routing Continuity        hectare-m      10^6 ltr
  **************************     ---------     ---------
  Dry Weather Inflow .......         0.616         6.165
  Wet Weather Inflow .......         8.290        82.900
  Groundwater Inflow .......         0.000         0.000
  RDII Inflow ..............         0.000         0.000
  External Inflow ..........         0.102         1.024
  External Outflow .........         2.219        22.195
  Flooding Loss ............         6.270        62.702
  Evaporation Loss .........         0.000         0.000
  Exfiltration Loss ........         0.000         0.000
  Initial Stored Volume ....         0.076         0.761
  Final Stored Volume ......         0.681         6.807
  Continuity Error (%) .....        -0.941
  
  
  **************************           COD            SS            TN            TP         NH4-N
  Quality Routing Continuity            kg            kg            kg            kg            kg
  **************************    ----------    ----------    ----------    ----------    ----------
  Dry Weather Inflow .......      1541.201      2465.922       147.955        18.494        92.472
  Wet Weather Inflow .......      9365.089     18281.289       183.691        12.953        88.118
  Groundwater Inflow .......         0.000         0.000         0.000         0.000         0.000
  RDII Inflow ..............         0.000         0.000         0.000         0.000         0.000
  External Inflow ..........       183.418       293.469        17.608         2.201        11.005
  External Outflow .........      2773.548      5080.204       133.692        14.807        78.324
  Flooding Loss ............      7528.835     14541.165       186.533        15.931        96.947
  Exfiltration Loss ........         0.000         0.000         0.000         0.000         0.000
  Mass Reacted .............         0.000         0.000         0.000         0.000         0.000
  Initial Stored Mass ......         0.000         0.000         0.000         0.000         0.000
  Final Stored Mass ........       677.757      1233.934        25.744         2.623        14.576
  Continuity Error (%) .....         0.988         0.881         0.941         0.853         0.912
  
  
  *************************
  Highest Continuity Errors
  *************************
  Node YS02001884 (10.16%)
  Node HS02004842 (7.73%)
  Node JK-storage (-5.48%)
  Node HS02004817 (1.58%)
  Node YSB1171 (1.38%)
  
  
  ***************************
  Time-Step Critical Elements
  ***************************
  Link WS02006252WS02006251 (68.79%)
  Link WS02006280WS02006229 (9.38%)
  Link WS02006238WS02006235 (4.83%)
  Link YS02001793JiankangQianchi (3.17%)
  Link YS02001791YS02001793 (2.17%)
  
  
  ********************************
  Highest Flow Instability Indexes
  ********************************
  Link WS02006113WS02006111 (38)
  Link YS02163601YS02164001 (31)
  Link YS02163301YS02001633 (30)
  Link YS02001629YS02163301 (30)
  Link YS02001619YS02001622 (30)
  
  
  *************************
  Routing Time Step Summary
  *************************
  Minimum Time Step           :     0.17 sec
  Average Time Step           :     1.17 sec
  Maximum Time Step           :     5.00 sec
  Percent in Steady State     :    -0.00
  Average Iterations per Step :     3.74
  Percent Not Converging      :    13.24
  
  
  ***************************
  Subcatchment Runoff Summary
  ***************************
  
  ------------------------------------------------------------------------------------------------------------------------------
                            Total      Total      Total      Total     Imperv       Perv      Total       Total     Peak  Runoff
                           Precip      Runon       Evap      Infil     Runoff     Runoff     Runoff      Runoff   Runoff   Coeff
  Subcatchment                 mm         mm         mm         mm         mm         mm         mm    10^6 ltr      LPS
  ------------------------------------------------------------------------------------------------------------------------------
  sub0                      23.84       0.00       0.00       0.77      22.12       0.90      23.02        0.02     5.06   0.966
  sub1                      23.84       0.00       0.00       1.33      21.12       1.29      22.41        0.15    33.98   0.940
  sub2                      23.84       0.00       0.00       5.60      14.93       3.22      18.15        0.17    32.49   0.761
  sub3                      23.84       0.00       0.00       5.94      14.89       2.88      17.77        0.40    70.76   0.745
  sub4                      23.84       0.00       0.00       1.46      20.95       1.16      22.11        0.46    81.55   0.928
  sub5                      23.84       0.00       0.00       0.82      22.07       0.85      22.92        0.26    59.56   0.962
  sub7                      23.84       0.00       0.00       1.03      21.63       1.11      22.74        0.08    19.22   0.954
  sub8                      23.84       0.00       0.00       1.05      21.62       1.10      22.72        0.15    35.26   0.953
  sub9                      23.84       0.00       0.00       1.05      21.62       1.10      22.71        0.11    26.33   0.953
  sub10                     23.84       0.00       0.00       0.94      21.84       0.97      22.81        0.25    58.74   0.957
  sub11                     23.84       0.00       0.00       0.92      21.86       0.99      22.85        0.27    65.28   0.959
  sub12                     23.84       0.00       0.00       1.50      20.69       1.60      22.29        0.19    51.10   0.935
  sub14                     23.84       0.00       0.00       1.05      21.61       1.09      22.71        0.22    51.81   0.953
  sub15                     23.84       0.00       0.00       4.05      16.62       3.10      19.72        0.34    74.01   0.827
  sub16                     23.84       0.00       0.00       4.23      15.93       3.63      19.56        0.20    48.29   0.821
  sub17                     23.84       0.00       0.00       4.13      16.17       3.50      19.67        0.17    39.49   0.825
  sub22                     23.84       0.00       0.00       6.08      13.55       4.17      17.72        1.12   235.47   0.743
  sub23                     23.84       0.00       0.00       5.01      14.97       3.81      18.78        0.90   197.86   0.788
  sub60                     23.84       0.00       0.00       2.13      18.82       0.73      19.55        5.93   667.30   0.820
  sub61                     23.84       0.00       0.00       3.01      18.52       1.04      19.56        6.03   717.95   0.821
  sub62                     23.84       0.00       0.00       1.25      20.31       0.65      20.96        6.44   751.14   0.880
  sub63                     23.84       0.00       0.00       5.57      16.04       1.34      17.38        5.26   638.31   0.729
  sub64                     23.84       0.00       0.00       2.78      18.11       0.79      18.90        5.75   644.78   0.793
  sub65                     23.84       0.00       0.00       2.36      18.46       0.74      19.20        5.90   658.64   0.806
  sub66                     23.84       0.00       0.00       5.92      15.37       0.99      16.36        5.02   574.80   0.686
  sub67                     23.84       0.00       0.00       1.18      20.92       0.73      21.65        6.68   814.16   0.908
  sub68                     23.84       0.00       0.00       2.35      19.35       0.99      20.34        6.25   750.28   0.853
  sub69                     23.84       0.00       0.00       2.36      19.61       1.21      20.83        4.87   655.18   0.874
  sub70                     23.84      21.26       0.00       9.95      28.09       5.22      33.30        7.62   861.91   0.738
  sub71                     23.84       0.00       0.00       1.29      20.01       0.62      20.63        4.87   557.88   0.866
  sub72                     23.84       0.00       0.00       1.26      17.48       0.41      17.89        3.64   352.81   0.750
  1                         23.84      32.43       0.00       1.37      34.56      12.51      47.07       11.06  1042.57   0.837
  2                         23.84       0.00       0.00       3.02       5.81       5.77      11.58        4.63   438.27   0.486
  
  
  ****************************
  Subcatchment Washoff Summary
  ****************************
  
  ------------------------------------------------------------------------------------------
                                 COD            SS            TN            TP         NH4-N
  Subcatchment                    kg            kg            kg            kg            kg
  ------------------------------------------------------------------------------------------
  sub0                         5.447        10.648         0.101         0.009         0.050
  sub1                        23.688        48.042         0.463         0.033         0.225
  sub2                        16.966        34.031         0.358         0.025         0.167
  sub3                        41.902        83.507         0.867         0.061         0.406
  sub4                        55.504       114.752         1.120         0.071         0.542
  sub5                        53.600       106.723         1.016         0.079         0.498
  sub7                        11.854        24.343         0.233         0.016         0.114
  sub8                        17.650        37.231         0.360         0.022         0.174
  sub9                        15.191        31.538         0.304         0.020         0.147
  sub10                       44.044        88.979         0.851         0.062         0.416
  sub11                       42.563        86.978         0.834         0.059         0.406
  sub12                       37.050        74.157         0.712         0.055         0.347
  sub14                       32.601        66.963         0.643         0.044         0.313
  sub15                       47.434        94.407         0.941         0.071         0.448
  sub16                       30.857        61.246         0.608         0.047         0.290
  sub17                       28.315        55.641         0.547         0.044         0.262
  sub22                      161.087       316.749         3.138         0.242         1.488
  sub23                       88.506       179.789         1.886         0.128         0.879
  sub60                      597.605      1177.766        11.858         0.760         5.721
  sub61                      735.660      1436.196        13.939         0.989         6.759
  sub62                      737.985      1463.009        14.530         0.959         7.028
  sub63                      558.710      1076.727        11.142         0.807         5.242
  sub64                      776.597      1477.973        14.527         1.087         6.999
  sub65                      790.465      1509.997        14.865         1.095         7.170
  sub66                      450.962       868.123         9.087         0.615         4.293
  sub67                     1073.899      2091.719        20.029         1.513         9.761
  sub68                      789.681      1552.112        15.327         1.072         7.390
  sub69                      691.072      1362.692        13.304         0.964         6.425
  sub70                     1288.654      2534.730        26.762         1.929        12.763
  sub71                      488.493       980.368         9.974         0.604         4.804
  sub72                      441.504       833.180         8.283         0.587         4.008
  1                         1052.298      2081.048        22.042         1.588        10.427
  2                          118.381       219.864         3.138         0.193         1.360
  ------------------------------------------------------------------------------------------
  System                   11346.226     22181.229       223.788        15.848       107.320
  
  
  ******************
  Node Depth Summary
  ******************
  
  ---------------------------------------------------------------------------------
                                 Average  Maximum  Maximum  Time of Max    Reported
                                   Depth    Depth      HGL   Occurrence   Max Depth
  Node                 Type       Meters   Meters   Meters  days hr:min      Meters
  ---------------------------------------------------------------------------------
  WS02001211           JUNCTION     0.78     0.86     5.70     0  01:41        0.86
  WS02001212           JUNCTION     0.49     0.59     5.65     0  01:41        0.59
  WS02001213           JUNCTION     0.74     0.87     5.63     0  01:40        0.87
  WS02003069           JUNCTION     0.53     0.74     5.32     0  01:41        0.74
  WS02003072           JUNCTION     0.59     0.78     5.15     0  01:41        0.78
  WS02003073           JUNCTION     0.36     0.49     4.55     0  01:42        0.49
  WS02003060           JUNCTION     0.47     0.65     5.58     0  01:40        0.65
  WS02003066           JUNCTION     0.26     0.40     5.95     0  01:33        0.40
  WS02003059           JUNCTION     0.78     0.92     5.61     0  01:40        0.92
  WS02003067           JUNCTION     0.61     0.84     6.16     0  01:33        0.83
  WS02004401           JUNCTION     0.77     1.59     7.59     0  01:30        1.34
  WS02004402           JUNCTION     0.79     1.52     7.48     0  01:30        1.32
  WS02004403           JUNCTION     0.80     1.47     7.40     0  01:30        1.28
  WS02004404           JUNCTION     0.87     1.50     7.35     0  01:30        1.31
  WS02004406           JUNCTION     0.87     1.32     7.15     0  01:30        1.21
  WS02004409           JUNCTION     0.57     1.04     6.81     0  01:33        1.03
  WS02004410           JUNCTION     0.58     1.00     6.72     0  01:32        1.00
  WS02004411           JUNCTION     0.59     0.97     6.65     0  01:33        0.97
  WS02004412           JUNCTION     0.60     0.94     6.58     0  01:33        0.93
  WS02004413           JUNCTION     0.74     1.05     6.52     0  01:33        1.05
  WS02004405           JUNCTION     0.87     1.46     7.31     0  01:30        1.28
  WS02006109           JUNCTION     0.89     2.00     8.62     0  01:30        1.87
  WS02006110           JUNCTION     0.85     2.01     8.59     0  01:30        1.64
  WS02006111           JUNCTION     0.31     1.61     8.32     0  01:30        1.05
  WS02006112           JUNCTION     0.96     2.09     7.98     0  01:30        1.70
  WS02006113           JUNCTION     0.42     1.72     8.61     0  01:30        1.11
  WS02006115           JUNCTION     0.67     1.69     7.83     0  01:30        1.35
  WS02006116           JUNCTION     0.75     1.68     7.72     0  01:30        1.38
  WS02006230           JUNCTION     0.92     2.19     8.93     0  01:31        2.10
  WS02006231           JUNCTION     0.66     1.78     8.91     0  01:31        1.71
  WS02006232           JUNCTION     0.80     1.84     8.88     0  01:31        1.78
  WS02006234           JUNCTION     0.73     1.70     8.86     0  01:31        1.65
  WS02006235           JUNCTION     0.76     1.69     8.85     0  01:31        1.64
  WS02006238           JUNCTION     0.79     1.70     8.85     0  01:31        1.66
  WS02006240           JUNCTION     0.68     1.52     8.82     0  01:31        1.48
  WS02006242           JUNCTION     0.72     1.52     8.79     0  01:31        1.48
  WS02006243           JUNCTION     0.60     1.34     8.76     0  01:31        1.31
  WS02006245           JUNCTION     0.57     1.27     8.76     0  01:28        1.23
  WS02006247           JUNCTION     0.57     1.23     8.73     0  01:28        1.20
  WS02006248           JUNCTION     0.51     1.10     8.69     0  01:28        1.10
  WS02006249           JUNCTION     0.53     1.09     8.69     0  01:28        1.09
  WS02006239           JUNCTION     0.74     1.63     8.84     0  01:31        1.58
  WS02006251           JUNCTION     0.50     1.59     9.26     0  01:29        1.10
  WS02006252           JUNCTION     0.30     1.06     9.30     0  01:29        0.64
  WS02006253           JUNCTION     0.53     1.71     9.35     0  01:29        1.13
  WS02006256           JUNCTION     1.87     2.35     9.28     0  00:00        2.35
  WS02004138           JUNCTION     0.19     0.20     7.45     0  00:00        0.19
  WS02004139           JUNCTION     0.73     0.80     5.71     0  01:42        0.80
  WS02004407           JUNCTION     0.25     0.42     6.73     0  01:33        0.42
  WS02006228           JUNCTION     0.92     2.16     8.81     0  01:31        2.07
  WS02006229           JUNCTION     0.91     2.25     8.95     0  01:31        2.16
  WS02006280           JUNCTION     0.09     0.52     8.79     0  01:31        0.51
  WS02006284           JUNCTION     0.40     0.71     9.11     0  01:35        0.71
  WS02006287           JUNCTION     0.13     0.46     9.42     0  01:34        0.46
  WSF200               JUNCTION     0.25     0.45     5.69     0  01:33        0.45
  HS02004901           JUNCTION     0.15     0.43    10.25     0  01:33        0.43
  HS02004881           JUNCTION     0.01     0.07     9.10     0  01:29        0.06
  HS02004876           JUNCTION     0.05     0.19     9.22     0  01:34        0.19
  HS02004870           JUNCTION     0.02     0.11     9.40     0  01:35        0.11
  HS02004862           JUNCTION     0.03     0.13     9.51     0  01:35        0.13
  HS02004856           JUNCTION     0.09     0.17     9.59     0  01:35        0.17
  HS02004852           JUNCTION     0.02     0.10     9.61     0  01:35        0.10
  HS02004848           JUNCTION     0.02     0.08     9.68     0  01:36        0.08
  HS02004842           JUNCTION     0.34     0.41     9.68     0  01:36        0.41
  HS02004837           JUNCTION     0.04     0.10     9.68     0  01:35        0.10
  HS02004830           JUNCTION     0.05     0.15     9.62     0  01:35        0.15
  HS02004824           JUNCTION     0.03     0.20     9.61     0  01:35        0.20
  HS02004817           JUNCTION     0.47     0.77     9.62     0  01:34        0.77
  HS02004807           JUNCTION     0.15     0.44     9.61     0  01:35        0.44
  HS02004802           JUNCTION     0.19     0.47     9.60     0  01:35        0.47
  HS02004799           JUNCTION     0.15     0.55     9.76     0  01:33        0.55
  HS02004792           JUNCTION     0.05     0.27     9.79     0  01:33        0.27
  HS02004788           JUNCTION     0.04     0.19    10.09     0  01:34        0.19
  HS02004785           JUNCTION     0.07     0.29    10.19     0  01:33        0.29
  HS02004777           JUNCTION     0.17     0.44    10.24     0  01:33        0.44
  HS02004770           JUNCTION     0.14     0.42    10.25     0  01:33        0.42
  HS02004480           JUNCTION     0.11     0.46     9.70     0  01:33        0.46
  HS02004479           JUNCTION     0.15     0.49     9.70     0  01:34        0.49
  HS02004478           JUNCTION     0.09     0.35     9.58     0  01:34        0.35
  YS02001745           JUNCTION     0.83     1.10     8.62     0  01:29        1.05
  YS02001748           JUNCTION     1.24     1.96     9.03     0  01:28        1.47
  YS02001751           JUNCTION     1.42     1.79     8.67     0  01:28        1.64
  YS02001754           JUNCTION     1.68     1.89     8.50     0  03:01        1.89
  YS02001762           JUNCTION     1.87     2.08     8.48     0  02:38        2.07
  YS02001765           JUNCTION     1.83     2.02     8.47     0  02:38        2.02
  YS02001767           JUNCTION     1.79     1.97     8.46     0  02:39        1.97
  YS02001770           JUNCTION     1.78     1.95     8.44     0  01:26        1.95
  YS02001774           JUNCTION     1.84     2.02     8.44     0  01:26        2.00
  YS02001779           JUNCTION     1.58     1.68     8.37     0  01:26        1.68
  YS02001882           JUNCTION     0.77     1.67     8.38     0  01:33        1.64
  YS02001884           JUNCTION     0.87     1.76     8.38     0  01:33        1.74
  YS02001759           JUNCTION     1.91     2.12     8.48     0  02:38        2.11
  YS02001887           JUNCTION     0.95     1.82     8.36     0  01:59        1.82
  YS02001890           JUNCTION     0.97     1.81     8.32     0  01:33        1.81
  YS02001898           JUNCTION     0.74     1.56     8.30     0  01:33        1.56
  YS02001901           JUNCTION     0.85     1.68     8.29     0  01:39        1.67
  YS02001904           JUNCTION     0.83     1.64     8.27     0  01:36        1.64
  YS02001907           JUNCTION     1.16     1.96     8.25     0  01:33        1.96
  YS02001910           JUNCTION     0.96     1.84     8.35     0  01:34        1.81
  YS02001915           JUNCTION     0.76     1.70     8.42     0  01:34        1.63
  YS02001918           JUNCTION     0.49     1.49     8.56     0  01:34        1.33
  YS02001619           JUNCTION     1.36     1.61     8.54     0  01:27        1.54
  YS02001629           JUNCTION     1.72     1.85     8.40     0  01:27        1.85
  YS02001641           JUNCTION     1.81     1.97     8.40     0  01:29        1.93
  YS02001644           JUNCTION     1.82     1.92     8.35     0  01:29        1.92
  YS02001652           JUNCTION     1.68     2.02     8.62     0  01:29        1.88
  YS02001655           JUNCTION     1.44     1.93     8.78     0  01:29        1.66
  YS02001920           JUNCTION     0.60     1.62     8.63     0  01:34        1.42
  YS02001923           JUNCTION     0.41     1.41     8.67     0  01:34        1.20
  YS02001926           JUNCTION     0.43     1.39     8.83     0  01:34        1.01
  YS02001929           JUNCTION     0.28     0.99     8.69     0  01:34        0.76
  YS02001658           JUNCTION     1.17     1.74     8.89     0  04:48        1.39
  YS02001661           JUNCTION     0.93     1.84     9.24     0  04:48        1.16
  YS02001664           JUNCTION     0.43     0.69     8.61     0  01:30        0.68
  YS02001622           JUNCTION     1.38     1.62     8.52     0  01:27        1.54
  YS02001633           JUNCTION     1.81     1.98     8.43     0  01:29        1.95
  YS02001649           JUNCTION     1.88     2.05     8.44     0  01:29        2.05
  YS02001757           JUNCTION     2.01     2.21     8.47     0  02:38        2.21
  YS02001895           JUNCTION     0.73     1.57     8.31     0  01:34        1.56
  YS02001625           JUNCTION     1.67     1.78     8.38     0  01:27        1.78
  YS02163301           JUNCTION     1.75     1.90     8.42     0  01:29        1.89
  YS02163601           JUNCTION     1.86     2.04     8.43     0  01:29        1.99
  YS02164001           JUNCTION     1.80     1.97     8.43     0  01:29        1.91
  YS02001647           JUNCTION     1.65     1.80     8.41     0  01:32        1.79
  YSB1154              JUNCTION     0.29     0.65     9.70     0  01:34        0.65
  YSB6556              JUNCTION     0.18     0.53     9.70     0  01:33        0.53
  YSB1174              JUNCTION     0.24     0.59     9.70     0  01:33        0.59
  YSB1171              JUNCTION     0.44     0.80     9.70     0  01:34        0.80
  YS02006553           JUNCTION     1.16     2.02     8.30     0  02:06        1.96
  YS02006561           JUNCTION     0.45     1.17     7.83     0  02:06        1.08
  YS02006556           JUNCTION     1.13     2.04     8.35     0  02:06        1.93
  YS02006558           JUNCTION     1.17     2.11     8.38     0  02:06        1.98
  YS02001783           JUNCTION     0.70     1.56     7.71     0  02:06        1.46
  YS02001784           JUNCTION     0.70     1.52     7.59     0  02:06        1.40
  YS02001786           JUNCTION     0.62     1.38     7.41     0  02:06        1.24
  YS02001788           JUNCTION     0.53     1.26     7.23     0  02:06        1.11
  YS02001790           JUNCTION     0.65     1.96     7.60     0  04:54        1.26
  YS02001791           JUNCTION     0.60     1.69     7.16     0  04:54        1.24
  YS02001793           JUNCTION     0.81     2.66     7.49     0  04:52        1.79
  WSC                  OUTFALL      0.36     0.49     1.16     0  01:42        0.49
  JK-storage           STORAGE      3.24     5.80     6.60     0  04:54        5.80
  CC-storage           STORAGE      1.25     1.48     8.48     0  02:55        1.48
  XR-storage           STORAGE      7.28     7.72     5.72     0  01:49        7.72
  
  
  *******************
  Node Inflow Summary
  *******************
  
  -------------------------------------------------------------------------------------------------
                                  Maximum  Maximum                  Lateral       Total        Flow
                                  Lateral    Total  Time of Max      Inflow      Inflow     Balance
                                   Inflow   Inflow   Occurrence      Volume      Volume       Error
  Node                 Type           LPS      LPS  days hr:min    10^6 ltr    10^6 ltr     Percent
  -------------------------------------------------------------------------------------------------
  WS02001211           JUNCTION      7.35   391.44     0  03:15       0.207        10.5       0.385
  WS02001212           JUNCTION      0.00   395.63     0  03:14           0        10.4       0.232
  WS02001213           JUNCTION      0.00   399.21     0  03:14           0        10.4       0.271
  WS02003069           JUNCTION      0.32  1384.92     0  01:40     0.00902        22.3       0.153
  WS02003072           JUNCTION      0.00  1384.97     0  01:41           0        22.2       0.184
  WS02003073           JUNCTION      1.82  1386.70     0  01:41      0.0514        22.2       0.211
  WS02003060           JUNCTION     16.53  1384.78     0  01:39       0.466        22.3       0.145
  WS02003066           JUNCTION      0.00   998.62     0  01:33           0        11.5       0.039
  WS02003059           JUNCTION      0.00   403.54     0  03:13           0        10.4       0.381
  WS02003067           JUNCTION      0.00   994.96     0  01:33           0        11.5       0.080
  WS02004401           JUNCTION      0.00  1018.51     0  01:31           0        11.7       0.170
  WS02004402           JUNCTION      0.00  1018.06     0  01:31           0        11.7       0.162
  WS02004403           JUNCTION      0.00  1018.39     0  01:32           0        11.7       0.148
  WS02004404           JUNCTION      0.16  1018.97     0  01:32     0.00457        11.7       0.113
  WS02004406           JUNCTION      0.00  1020.59     0  01:32           0        11.6       0.273
  WS02004409           JUNCTION      0.00  1018.11     0  01:32           0        11.6       0.135
  WS02004410           JUNCTION      0.00  1006.26     0  01:32           0        11.6       0.154
  WS02004411           JUNCTION      0.00   992.29     0  01:34           0        11.6       0.158
  WS02004412           JUNCTION      0.00   991.93     0  01:34           0        11.5       0.172
  WS02004413           JUNCTION      0.00   994.88     0  01:33           0        11.5       0.260
  WS02004405           JUNCTION      0.04  1019.88     0  01:32     0.00107        11.6       0.170
  WS02006109           JUNCTION      1.23   979.51     0  01:31      0.0347        11.6       0.124
  WS02006110           JUNCTION      0.00   979.24     0  01:31           0        11.6       0.151
  WS02006111           JUNCTION      0.00   979.34     0  01:31           0        11.6       0.029
  WS02006112           JUNCTION     39.49  1018.66     0  01:31       0.169        11.8       0.216
  WS02006113           JUNCTION      0.00   979.44     0  01:31           0        11.6       0.074
  WS02006115           JUNCTION      0.00  1018.44     0  01:31           0        11.7       0.155
  WS02006116           JUNCTION      0.00  1018.67     0  01:31           0        11.7       0.128
  WS02006230           JUNCTION     10.28   532.90     0  07:01        0.29        7.13       0.165
  WS02006231           JUNCTION      0.00   522.72     0  07:03           0        6.84       0.113
  WS02006232           JUNCTION      0.00   522.49     0  07:03           0        6.84       0.226
  WS02006234           JUNCTION      0.00   523.25     0  07:03           0        6.83       0.070
  WS02006235           JUNCTION      0.00   523.86     0  07:01           0        7.03       0.147
  WS02006238           JUNCTION      0.00   333.19     0  07:33           0        3.33       0.104
  WS02006240           JUNCTION      0.00   343.45     0  07:32           0        3.28       0.293
  WS02006242           JUNCTION      0.00   352.28     0  07:32           0        3.28       0.441
  WS02006243           JUNCTION      0.00   360.32     0  07:31           0        3.27       0.172
  WS02006245           JUNCTION      0.00   365.81     0  07:31           0        3.26       0.342
  WS02006247           JUNCTION      0.00   370.28     0  07:31           0        3.26       0.220
  WS02006248           JUNCTION      0.00   375.33     0  07:31           0        3.34       0.090
  WS02006249           JUNCTION      0.00   426.38     0  06:59           0         3.5       0.295
  WS02006239           JUNCTION      0.00   336.28     0  07:33           0         3.3       0.125
  WS02006251           JUNCTION      0.08   409.39     0  06:59     0.00217        3.55       0.213
  WS02006252           JUNCTION      0.00   399.82     0  07:00           0        2.58       0.018
  WS02006253           JUNCTION      5.06   214.90     0  01:29      0.0186       0.966       0.338
  WS02006256           JUNCTION      0.00   983.00     0  00:00           0        14.5      -0.007
  WS02004138           JUNCTION      0.00   380.00     0  00:00           0        10.3       0.062
  WS02004139           JUNCTION      0.32   396.51     0  00:00     0.00905        10.3       0.437
  WS02004407           JUNCTION      0.00  1021.23     0  01:32           0        11.6       0.058
  WS02006228           JUNCTION      0.00   978.74     0  01:31           0        11.6       0.118
  WS02006229           JUNCTION      0.00  1068.78     0  01:31           0        11.7       0.116
  WS02006280           JUNCTION      0.00   934.80     0  01:35           0        4.56       0.011
  WS02006284           JUNCTION      0.10   934.66     0  01:35      0.0027        4.56       0.016
  WS02006287           JUNCTION      0.00   934.52     0  01:35           0        4.56       0.019
  WSF200               JUNCTION      0.00   999.81     0  01:33           0        11.5       0.036
  HS02004901           JUNCTION     48.29    48.29     0  01:31       0.205       0.205       0.867
  HS02004881           JUNCTION     19.22   195.12     0  01:34      0.0766       0.897       0.068
  HS02004876           JUNCTION     33.98   176.89     0  01:34       0.149       0.821       0.068
  HS02004870           JUNCTION     35.26   143.33     0  01:34       0.145       0.672       0.017
  HS02004862           JUNCTION     32.69   109.54     0  01:35       0.175       0.527       0.033
  HS02004856           JUNCTION     26.33    76.91     0  01:35       0.109       0.354       0.407
  HS02004852           JUNCTION      0.00    51.63     0  01:36           0       0.245       0.025
  HS02004848           JUNCTION     70.76    70.76     0  01:38         0.4         0.4       0.013
  HS02004842           JUNCTION      0.00    21.86     0  01:49           0       0.168       8.372
  HS02004837           JUNCTION     65.09    82.02     0  01:35       0.431       0.586       0.139
  HS02004830           JUNCTION      0.15    82.12     0  01:35     0.00423       0.576       0.215
  HS02004824           JUNCTION     81.60   164.05     0  01:38       0.463        1.04       0.052
  HS02004817           JUNCTION      0.60   166.64     0  01:39      0.0169        1.05       1.607
  HS02004807           JUNCTION     65.28   225.50     0  01:36       0.265         1.3       0.343
  HS02004802           JUNCTION      0.00   226.42     0  01:37           0         1.3       0.298
  HS02004799           JUNCTION     51.81   605.45     0  01:33       0.216        2.82       0.117
  HS02004792           JUNCTION    235.75   554.33     0  01:33        1.13        2.61       0.015
  HS02004788           JUNCTION     75.68   319.92     0  01:33       0.386        1.48       0.026
  HS02004785           JUNCTION      0.15   244.47     0  01:33     0.00423         1.1       0.047
  HS02004777           JUNCTION      0.03   244.67     0  01:32    0.000846         1.1       0.479
  HS02004770           JUNCTION    197.86   245.55     0  01:32       0.896         1.1       0.279
  HS02004480           JUNCTION      0.00   713.02     0  01:33           0        3.27       0.024
  HS02004479           JUNCTION      0.00   107.71     0  01:33           0       0.464       0.161
  HS02004478           JUNCTION      0.00   934.43     0  01:34           0        4.56       0.007
  YS02001745           JUNCTION    667.30   667.30     0  03:01        5.93        5.93       0.195
  YS02001748           JUNCTION      0.04   667.48     0  03:01     0.00127        5.92       0.382
  YS02001751           JUNCTION      0.01   667.72     0  03:01     0.00031         5.9       0.411
  YS02001754           JUNCTION      0.26   668.22     0  03:01     0.00733        5.89       0.415
  YS02001762           JUNCTION      0.00   384.32     0  01:26           0        3.34       0.634
  YS02001765           JUNCTION      0.00   379.26     0  01:26           0        3.34       0.729
  YS02001767           JUNCTION      0.54   385.86     0  01:26      0.0151        3.36       1.073
  YS02001770           JUNCTION    751.30  1114.38     0  03:01        6.45         8.6       0.363
  YS02001774           JUNCTION      0.00   851.63     0  02:09           0        6.88       0.363
  YS02001779           JUNCTION      0.01   851.40     0  02:09    0.000141        6.86       0.226
  YS02001882           JUNCTION      0.00    32.63     0  01:30           0      0.0291       9.529
  YS02001884           JUNCTION      0.00    64.76     0  01:29           0       0.067      11.306
  YS02001759           JUNCTION    717.99   899.00     0  01:42        6.03        7.19       0.319
  YS02001887           JUNCTION    814.61   815.56     0  01:58        6.69        6.72       0.135
  YS02001890           JUNCTION      0.00   816.04     0  01:57           0        6.67       0.146
  YS02001898           JUNCTION      0.00   598.92     0  01:33           0        5.39       0.063
  YS02001901           JUNCTION      0.00   600.80     0  01:33           0        5.38       0.136
  YS02001904           JUNCTION      0.00   600.99     0  01:33           0        5.38       0.124
  YS02001907           JUNCTION      0.00  1427.85     0  03:01           0          14       0.180
  YS02001910           JUNCTION      0.00   911.21     0  03:01           0        8.58       0.146
  YS02001915           JUNCTION    557.90   911.08     0  03:01        4.87        8.64       0.078
  YS02001918           JUNCTION      0.00   380.98     0  01:35           0         3.8       0.045
  YS02001619           JUNCTION    574.80   574.80     0  03:01        5.02        5.02       0.241
  YS02001629           JUNCTION      0.00   280.78     0  01:26           0        2.09       1.372
  YS02001641           JUNCTION      0.00   466.90     0  01:28           0        6.13       0.344
  YS02001644           JUNCTION    644.82  1924.49     0  03:01        5.75        20.1       0.132
  YS02001652           JUNCTION      0.00   639.63     0  03:01           0        5.21       0.435
  YS02001655           JUNCTION      0.15   639.46     0  03:01     0.00434        5.24       0.485
  YS02001920           JUNCTION      2.87   380.64     0  01:35      0.0809        3.78       0.091
  YS02001923           JUNCTION      0.04   355.12     0  03:01     0.00106        3.68       0.045
  YS02001926           JUNCTION      0.05   352.45     0  03:01     0.00147        3.66       0.090
  YS02001929           JUNCTION    352.81   352.81     0  03:01        3.64        3.64       0.018
  YS02001658           JUNCTION      0.00   639.09     0  03:01           0        5.26       0.461
  YS02001661           JUNCTION      0.00   800.45     0  01:40           0        5.59       0.020
  YS02001664           JUNCTION    638.31   638.31     0  03:01        5.26         5.6       0.111
  YS02001622           JUNCTION      0.00   574.85     0  03:01           0        5.01       0.630
  YS02001633           JUNCTION    658.84   658.84     0  03:01        5.91        7.07       0.453
  YS02001649           JUNCTION      0.00  1447.55     0  03:01           0        11.9       0.311
  YS02001757           JUNCTION      0.00  2183.22     0  01:41           0        12.7       0.722
  YS02001895           JUNCTION      0.00   597.57     0  01:33           0        5.39       0.119
  YS02001625           JUNCTION      0.00   801.39     0  03:01           0        5.86       0.683
  YS02163301           JUNCTION      0.00   285.81     0  01:26           0        2.09       1.145
  YS02163601           JUNCTION      0.11   462.09     0  01:28      0.0031        6.14       0.490
  YS02164001           JUNCTION      0.00   462.95     0  01:28           0        6.12       0.326
  YS02001647           JUNCTION      0.00   846.70     0  02:38           0        9.11       0.312
  YSB1154              JUNCTION     59.56    59.56     0  01:33        0.26        0.26       0.556
  YSB6556              JUNCTION      0.00    59.45     0  01:33           0       0.261       0.488
  YSB1174              JUNCTION     51.10    51.10     0  01:30       0.195       0.195       0.658
  YSB1171              JUNCTION      0.00   108.27     0  01:32           0       0.462       1.394
  YS02006553           JUNCTION      0.00   730.67     0  04:02           0        7.96       0.201
  YS02006561           JUNCTION      0.00  1154.93     0  02:04           0        14.2       0.007
  YS02006556           JUNCTION      0.00   729.96     0  04:02           0        7.97       0.139
  YS02006558           JUNCTION    751.16  1155.26     0  02:04        6.28        14.2       0.036
  YS02001783           JUNCTION      0.00  1154.67     0  02:04           0        14.2       0.018
  YS02001784           JUNCTION      1.06  1156.04     0  02:04      0.0299        14.2       0.028
  YS02001786           JUNCTION      0.06  1155.60     0  02:04     0.00159        14.2       0.029
  YS02001788           JUNCTION      0.07  1155.94     0  02:04       0.002        14.2       0.017
  YS02001790           JUNCTION      0.15  1167.95     0  01:59     0.00437        14.2       0.026
  YS02001791           JUNCTION      0.00  1284.12     0  01:56           0        14.2      -0.007
  YS02001793           JUNCTION      0.00  1246.17     0  01:58           0        14.2       0.011
  WSC                  OUTFALL       0.00  1386.61     0  01:42           0        22.2       0.000
  JK-storage           STORAGE       0.00  1259.19     0  01:53           0        14.3      -5.195
  CC-storage           STORAGE       0.00  2183.43     0  01:41           0        6.56       0.988
  XR-storage           STORAGE    1680.85  1680.85     0  03:01        21.3        21.9      -0.003
  
  
  **********************
  Node Surcharge Summary
  **********************
  
  Surcharging occurs when water rises above the top of the highest conduit.
  ---------------------------------------------------------------------
                                               Max. Height   Min. Depth
                                   Hours       Above Crown    Below Rim
  Node                 Type      Surcharged         Meters       Meters
  ---------------------------------------------------------------------
  WS02004401           JUNCTION        1.75          0.586        1.074
  WS02004402           JUNCTION        1.77          0.520        1.220
  WS02004403           JUNCTION        1.78          0.468        1.562
  WS02004404           JUNCTION        2.03          0.503        2.277
  WS02004406           JUNCTION        1.88          0.321        2.129
  WS02004409           JUNCTION        0.17          0.043        2.317
  WS02004413           JUNCTION        0.75          0.051        2.149
  WS02004405           JUNCTION        1.99          0.459        2.341
  WS02006109           JUNCTION        3.58          1.182        0.638
  WS02006110           JUNCTION        2.45          1.099        0.751
  WS02006111           JUNCTION        0.61          0.799        1.071
  WS02006112           JUNCTION        2.64          1.092        0.588
  WS02006113           JUNCTION        0.63          0.917        1.013
  WS02006115           JUNCTION        1.63          0.684        1.566
  WS02006116           JUNCTION        1.70          0.623        1.667
  WS02006230           JUNCTION        2.31          1.107        0.463
  WS02006231           JUNCTION        2.62          1.074        0.456
  WS02006232           JUNCTION        3.71          1.142        0.338
  WS02006234           JUNCTION        3.11          0.985        0.255
  WS02006235           JUNCTION        3.35          0.978        0.312
  WS02006238           JUNCTION        3.41          0.985        0.445
  WS02006240           JUNCTION        2.94          0.814        0.576
  WS02006242           JUNCTION        2.99          0.788        0.032
  WS02006243           JUNCTION        2.71          0.626        0.144
  WS02006245           JUNCTION        2.51          0.564        0.286
  WS02006247           JUNCTION        2.50          0.519        0.241
  WS02006248           JUNCTION        2.21          0.380        0.000
  WS02006249           JUNCTION        2.27          0.390        0.000
  WS02006239           JUNCTION        3.08          0.886        0.404
  WS02006251           JUNCTION        0.74          0.562        0.618
  WS02006252           JUNCTION        1.73          0.655        0.445
  WS02006253           JUNCTION        1.00          0.668        1.812
  WS02006256           JUNCTION        6.90          2.050        0.000
  WS02006228           JUNCTION        3.53          1.328        0.872
  WS02006229           JUNCTION        0.01          0.072        0.998
  HS02004817           JUNCTION        0.46          0.068        1.672
  YS02001745           JUNCTION        1.07          0.098        1.252
  YS02001748           JUNCTION        6.35          0.877        0.313
  YS02001751           JUNCTION        6.36          0.787        0.413
  YS02001754           JUNCTION        6.38          0.839        0.311
  YS02001762           JUNCTION        6.40          1.076        0.074
  YS02001765           JUNCTION        6.40          1.018        0.082
  YS02001767           JUNCTION        6.39          0.974        0.056
  YS02001770           JUNCTION        6.39          0.920        0.000
  YS02001774           JUNCTION        6.40          1.020        0.030
  YS02001779           JUNCTION        6.37          0.680        0.000
  YS02001882           JUNCTION        2.55          0.667        0.163
  YS02001884           JUNCTION        2.56          0.699        0.171
  YS02001759           JUNCTION        6.41          1.119        0.091
  YS02001887           JUNCTION        2.62          0.774        0.176
  YS02001890           JUNCTION        2.64          0.760        0.000
  YS02001898           JUNCTION        2.51          0.534        0.206
  YS02001901           JUNCTION        2.59          0.677        0.193
  YS02001904           JUNCTION        2.58          0.638        0.212
  YS02001907           JUNCTION        3.13          0.950        0.000
  YS02001910           JUNCTION        2.68          0.841        0.259
  YS02001915           JUNCTION        2.54          0.704        0.296
  YS02001918           JUNCTION        2.39          0.494        0.316
  YS02001619           JUNCTION        6.37          0.610        0.000
  YS02001629           JUNCTION        6.37          0.470        0.000
  YS02001641           JUNCTION        6.40          0.965        0.135
  YS02001644           JUNCTION        6.40          0.920        0.000
  YS02001652           JUNCTION        6.38          0.994        0.136
  YS02001655           JUNCTION        6.37          0.933        0.267
  YS02001920           JUNCTION        2.42          0.619        0.521
  YS02001923           JUNCTION        0.01          0.199        0.621
  YS02001926           JUNCTION        0.01          0.390        0.510
  YS02001658           JUNCTION        6.35          0.743        0.557
  YS02001661           JUNCTION        1.46          0.769        0.621
  YS02001622           JUNCTION        6.37          0.620        0.000
  YS02001633           JUNCTION        6.40          0.958        0.102
  YS02001649           JUNCTION        6.40          1.050        0.000
  YS02001757           JUNCTION        6.42          1.210        0.000
  YS02001895           JUNCTION        2.53          0.567        0.183
  YS02001625           JUNCTION        6.38          0.780        0.000
  YS02163301           JUNCTION        6.39          0.900        0.130
  YS02163601           JUNCTION        6.40          1.035        0.045
  YS02164001           JUNCTION        6.40          0.968        0.132
  YS02001647           JUNCTION        6.38          0.801        0.099
  YS02006553           JUNCTION        3.20          1.018        0.172
  YS02006561           JUNCTION        2.41          0.366        0.784
  YS02006556           JUNCTION        2.84          1.000        0.350
  YS02006558           JUNCTION        2.82          1.010        0.390
  YS02001783           JUNCTION        2.63          0.764        0.836
  YS02001784           JUNCTION        2.60          0.717        0.773
  YS02001786           JUNCTION        2.51          0.576        0.854
  YS02001788           JUNCTION        1.89          0.456        1.024
  YS02001790           JUNCTION        2.64          1.157        0.000
  YS02001791           JUNCTION        2.71          0.889        1.031
  YS02001793           JUNCTION        2.97          1.660        0.940
  
  
  *********************
  Node Flooding Summary
  *********************
  
  Flooding refers to all water that overflows a node, whether it ponds or not.
  --------------------------------------------------------------------------
                                                             Total   Maximum
                                 Maximum   Time of Max       Flood    Ponded
                        Hours       Rate    Occurrence      Volume     Depth
  Node                 Flooded       LPS   days hr:min    10^6 ltr    Meters
  --------------------------------------------------------------------------
  WS02006248              0.47    199.55      0  01:36       0.190     0.000
  WS02006249              0.91    227.77      0  01:29       0.260     0.000
  WS02006256              4.85    978.40      0  00:00      10.637     0.000
  YS02001770              1.16    263.02      0  03:01       0.494     0.000
  YS02001779              4.56    851.25      0  02:10       6.838     0.000
  YS02001890              1.73    299.43      0  01:57       1.272     0.000
  YS02001907              2.27   1197.37      0  03:01       5.985     0.000
  YS02001619              0.01    101.06      0  01:27       0.000     0.000
  YS02001629              0.01    246.18      0  01:27       0.002     0.000
  YS02001644              5.83   1924.36      0  03:01      19.247     0.000
  YS02001622              0.01    110.85      0  01:27       0.000     0.000
  YS02001649              1.33    600.84      0  03:01       1.880     0.000
  YS02001757              0.30    321.59      0  03:01       0.174     0.000
  YS02001625              3.01    801.28      0  03:01       4.635     0.000
  YS02001790              0.01    174.45      0  04:54       0.000     0.000
  JK-storage              0.48    492.71      0  04:57       0.401     0.000
  XR-storage              6.01   1300.58      0  03:01      10.684     0.000
  
  
  **********************
  Storage Volume Summary
  **********************
  
  --------------------------------------------------------------------------------------------------
                         Average     Avg  Evap Exfil       Maximum     Max    Time of Max    Maximum
                          Volume    Pcnt  Pcnt  Pcnt        Volume    Pcnt     Occurrence    Outflow
  Storage Unit           1000 m3    Full  Loss  Loss       1000 m3    Full    days hr:min        LPS
  --------------------------------------------------------------------------------------------------
  JK-storage               0.163      56     0     0         0.291     100       0  04:54     983.00
  CC-storage               3.498      22     0     0         4.126      26       0  02:55     399.82
  XR-storage               0.874      94     0     0         0.926     100       0  01:49     380.00
  
  
  ***********************
  Outfall Loading Summary
  ***********************
  
  ---------------------------------------------------------------------------------------------------------------------------------
                         Flow       Avg       Max       Total         Total         Total         Total         Total         Total
                         Freq      Flow      Flow      Volume           COD            SS            TN            TP         NH4-N
  Outfall Node           Pcnt       LPS       LPS    10^6 ltr            kg            kg            kg            kg            kg
  ---------------------------------------------------------------------------------------------------------------------------------
  WSC                   99.98    826.77   1386.61      22.194      2773.693      5080.456       133.703        14.808        78.331
  ---------------------------------------------------------------------------------------------------------------------------------
  System                99.98    826.77   1386.61      22.194      2773.693      5080.456       133.703        14.808        78.331
  
  
  ********************
  Link Flow Summary
  ********************
  
  -----------------------------------------------------------------------------
                                 Maximum  Time of Max   Maximum    Max/    Max/
                                  |Flow|   Occurrence   |Veloc|    Full    Full
  Link                 Type          LPS  days hr:min     m/sec    Flow   Depth
  -----------------------------------------------------------------------------
  WS02003066WSF200     CONDUIT    999.81     0  01:33      3.08    0.17    0.33
  WS02006287WS02006284 CONDUIT    934.56     0  01:35      2.63    0.43    0.46
  WS02006284WS02006280 CONDUIT    934.80     0  01:35      2.85    0.39    0.45
  WS02006280WS02006229 CONDUIT    965.17     0  01:32      4.30    0.21    0.75
  WS02006229WS02006228 CONDUIT    978.74     0  01:31      1.95    3.24    1.00
  WS02006256WS02006235 CONDUIT    288.60     0  00:00      4.23    3.05    1.00
  WS02006253WS02006251 CONDUIT    213.74     0  01:29      0.78    0.64    1.00
  WS02006252WS02006251 CONDUIT    400.20     0  07:30      3.18    1.47    1.00
  WS02006251WS02006249 CONDUIT    426.38     0  06:59      1.13    1.23    1.00
  WS02006249WS02006248 CONDUIT    375.33     0  07:31      1.19    2.06    1.00
  WS02006248WS02006247 CONDUIT    370.28     0  07:31      1.16    0.81    1.00
  WS02006247WS02006245 CONDUIT    365.81     0  07:31      1.13    2.90    1.00
  WS02006245WS02006243 CONDUIT    360.32     0  07:31      1.17    1.07    1.00
  WS02006243WS02006242 CONDUIT    352.28     0  07:32      1.05    0.75    1.00
  WS02006242WS02006240 CONDUIT    343.45     0  07:32      1.00    1.36    1.00
  WS02006240WS02006239 CONDUIT    336.28     0  07:33      1.03    1.06    1.00
  WS02006239WS02006238 CONDUIT    333.19     0  07:33      0.95    1.07    1.00
  WS02006238WS02006235 CONDUIT    332.47     0  07:33      1.46    0.74    1.00
  WS02006235WS02006234 CONDUIT    523.25     0  07:03      1.36    5.52    1.00
  WS02006234WS02006232 CONDUIT    522.49     0  07:03      1.39    1.06    1.00
  WS02006232WS02006231 CONDUIT    522.72     0  07:03      1.36    1.10    1.00
  WS02006231WS02006230 CONDUIT    522.63     0  07:01      1.36    7.93    1.00
  WS02006230WS02006229 CONDUIT    534.43     0  07:00      1.39   11.89    1.00
  WS02006228WS02006109 CONDUIT    978.28     0  01:31      1.95    4.27    1.00
  WS02006116WS02004401 CONDUIT   1018.51     0  01:31      1.30    1.40    1.00
  WS02006115WS02006116 CONDUIT   1018.67     0  01:31      1.30    1.31    1.00
  WS02006113WS02006111 CONDUIT    979.34     0  01:31      2.72    1.17    1.00
  WS02006112WS02006115 CONDUIT   1018.44     0  01:31      1.30    0.60    1.00
  WS02006111WS02006112 CONDUIT    979.23     0  01:31      1.95    0.47    1.00
  WS02006110WS02006113 CONDUIT    979.44     0  01:31      1.95    0.89    1.00
  WS02006109WS02006110 CONDUIT    979.24     0  01:31      1.95    1.88    1.00
  WS02004411WS02004412 CONDUIT    991.93     0  01:34      1.29    1.41    0.96
  WS02004401WS02004402 CONDUIT   1018.06     0  01:31      1.30    1.22    1.00
  WS02004413WS02003067 CONDUIT    994.96     0  01:33      1.62    0.43    0.73
  WS02004412WS02004413 CONDUIT    994.88     0  01:33      1.28    0.67    0.97
  WS02004410WS02004411 CONDUIT    992.29     0  01:34      1.27    1.36    0.99
  WS02004409WS02004410 CONDUIT   1006.26     0  01:32      1.33    1.30    1.00
  WS02004407WS02004409 CONDUIT   1018.11     0  01:32      1.92    0.36    0.71
  WS02004406WS02004407 CONDUIT   1021.23     0  01:32      1.72    0.46    0.71
  WS02004405WS02004406 CONDUIT   1020.59     0  01:32      1.30    2.01    1.00
  WS02004404WS02004405 CONDUIT   1019.84     0  01:32      1.30    9.99    1.00
  WS02004403WS02004404 CONDUIT   1018.80     0  01:32      1.30    0.74    1.00
  WS02004402WS02004403 CONDUIT   1018.39     0  01:32      1.30    1.46    1.00
  WS02004139WS02001211 CONDUIT    384.09     0  03:15      0.90    0.49    0.65
  WS02004138WS02004139 CONDUIT    396.19     0  00:00      3.65    0.08    0.47
  WS02003067WS02003066 CONDUIT    998.62     0  01:33      1.71    0.32    0.51
  WS02001213WS02003059 CONDUIT    403.54     0  03:13      0.88    0.67    0.89
  WS02001212WS02001213 CONDUIT    399.21     0  03:14      1.32    0.62    0.57
  WS02001211WS02001212 CONDUIT    395.63     0  03:14      0.78    0.30    0.72
  WS02003072WS02003073 CONDUIT   1384.87     0  01:41      1.99    2.99    0.59
  WS02003069WS02003072 CONDUIT   1384.97     0  01:41      1.84    0.67    0.63
  WS02003060WS02003069 CONDUIT   1384.60     0  01:40      2.04    0.54    0.58
  WS02003059WS02003060 CONDUIT    409.06     0  03:15      0.95    0.27    0.79
  HS02004901HS02004770 CONDUIT     47.75     0  01:32      0.11    0.18    0.61
  HS02004876HS02004881 CONDUIT    176.92     0  01:35      1.41    1.88    0.18
  HS02004870HS02004876 CONDUIT    143.30     0  01:35      0.95    0.10    0.22
  HS02004842HS02004848 CONDUIT     21.86     0  01:49      0.09    0.01    0.35
  HS02004837HS02004842 CONDUIT     22.38     0  01:49      0.42    0.01    0.37
  HS02004830HS02004837 CONDUIT     81.97     0  01:35      0.70    0.08    0.18
  HS02004824HS02004830 CONDUIT     82.81     0  01:37      0.63    0.11    0.25
  HS02004817HS02004824 CONDUIT    166.04     0  01:39      0.37    0.07    0.64
  HS02004770HS02004777 CONDUIT    244.64     0  01:32      0.57    0.45    0.62
  HS02004799HS02004480 CONDUIT    605.40     0  01:33      1.21    0.76    0.71
  HS02004792HS02004799 CONDUIT    554.23     0  01:33      1.36    0.34    0.58
  HS02004788HS02004792 CONDUIT    319.84     0  01:34      1.40    0.21    0.33
  HS02004785HS02004788 CONDUIT    244.44     0  01:33      1.02    1.84    0.34
  HS02004777HS02004785 CONDUIT    244.32     0  01:33      0.67    0.30    0.52
  HS02004480HS02004478 CONDUIT    712.94     0  01:33      1.74    3.00    0.59
  HS02004479HS02004480 CONDUIT    107.66     0  01:33      0.45    0.10    0.68
  HS02004862HS02004870 CONDUIT    109.56     0  01:36      0.90    0.12    0.17
  HS02004848HS02004852 CONDUIT     51.63     0  01:36      0.58    0.06    0.13
  HS02004856HS02004862 CONDUIT     76.86     0  01:35      0.67    0.08    0.16
  HS02004852HS02004856 CONDUIT     51.74     0  01:36      0.39    0.06    0.19
  HS02004802HS02004478 CONDUIT    227.61     0  01:37      0.57    0.20    0.58
  HS02004478WS02006287 CONDUIT    934.52     0  01:35      2.37    0.26    0.44
  HS02004817HS02004807 CONDUIT    166.72     0  01:39      0.30    0.10    0.81
  HS02004807HS02004802 CONDUIT    226.42     0  01:37      0.51    0.43    0.64
  YS02001759YS02001757 CONDUIT    899.97     0  01:42      1.15    0.64    1.00
  YS02001762YS02001759 CONDUIT    389.96     0  01:26      0.50    0.45    1.00
  YS02001765YS02001762 CONDUIT    384.32     0  01:26      0.49    0.36    1.00
  YS02001770YS02001767 CONDUIT    385.33     0  01:26      0.50    1.53    1.00
  YS02001774YS02001770 CONDUIT    851.63     0  02:09      1.08    0.54    1.00
  YS02001779YS02001774 CONDUIT    851.39     0  02:09      1.08    0.43    1.00
  YS02001649YS02001757 CONDUIT    888.24     0  01:40      1.13    0.54    1.00
  YS02001767YS02001765 CONDUIT    379.26     0  01:26      0.48    0.48    1.00
  YS02006561YS02001783 CONDUIT   1154.67     0  02:04      2.30    0.60    1.00
  YS02001783YS02001784 CONDUIT   1154.98     0  02:04      2.30    1.59    1.00
  YS02001784YS02001785 CONDUIT   1155.54     0  02:04      2.30    2.69    1.00
  YS02001788YS02001790 CONDUIT   1167.80     0  01:59      2.73    0.86    1.00
  YS02001790YS02001791 CONDUIT   1284.12     0  01:56      3.42    1.40    1.00
  YS02001791YS02001793 CONDUIT   1246.17     0  01:58      6.77    0.54    1.00
  YS02001910YS02001907 CONDUIT    911.46     0  03:01      1.16    0.51    1.00
  YS02001786YS02001788 CONDUIT   1155.86     0  02:04      2.48    2.23    1.00
  YS02001915YS02001910 CONDUIT    911.21     0  03:01      1.16    0.45    1.00
  YS02001918YS02001915 CONDUIT    382.58     0  01:35      0.58    0.21    1.00
  YS02001923YS02001920 CONDUIT    377.77     0  01:35      0.91    0.17    1.00
  YS02001926YS02001923 CONDUIT    355.09     0  03:01      1.01    0.51    1.00
  YS02001929YS02001926 CONDUIT    352.40     0  03:01      1.07    0.17    1.00
  YS02001920YS02001918 CONDUIT    380.98     0  01:35      0.86    0.37    1.00
  YS02001629YS02163301 CONDUIT    280.78     0  01:26      0.36    0.35    1.00
  YS02001619YS02001622 CONDUIT    574.85     0  03:01      0.86    0.85    1.00
  YS02001622YS02001625 CONDUIT    575.08     0  03:01      0.73    0.31    1.00
  YS02001625YS02001629 CONDUIT    258.29     0  01:26      0.39    0.12    1.00
  YS02163301YS02001633 CONDUIT    285.81     0  01:26      0.36    0.27    1.00
  YS02163601YS02164001 CONDUIT    462.95     0  01:28      0.59    0.41    1.00
  YS02164001YS02001641 CONDUIT    466.90     0  01:28      0.59    0.64    1.00
  YS02001641YS02001644 CONDUIT    469.29     0  01:28      0.60    1.52    1.00
  YS02001647YS02001649 CONDUIT    846.70     0  02:38      1.08    0.45    1.00
  YS02006553YS02006556 CONDUIT    729.96     0  04:02      0.93    0.62    1.00
  YS02006556YS02006558 CONDUIT    731.04     0  04:02      0.93    0.58    1.00
  YSB6556YSB1171       CONDUIT     59.52     0  01:34      0.17    0.06    0.88
  YS02001907YS02006553 CONDUIT    730.67     0  04:02      0.81    0.86    1.00
  YS02006558YS02006561 CONDUIT   1154.93     0  02:04      4.08    2.55    1.00
  YS02001633YS02163601 CONDUIT    461.98     0  01:28      0.59    0.48    1.00
  YS02001644YS02001647 CONDUIT    846.70     0  02:38      1.08    0.50    1.00
  YS02001745YS02001748 CONDUIT    667.44     0  03:01      1.86    0.26    1.00
  YS02001748YS02001751 CONDUIT    667.71     0  03:01      1.39    0.34    1.00
  YS02001751YS02001754 CONDUIT    667.96     0  03:01      1.15    0.32    1.00
  YS02001754YS02001757 CONDUIT    668.39     0  03:01      0.85    0.27    1.00
  YS02001882YS02001884 CONDUIT     32.63     0  01:30      0.22    0.04    1.00
  YS02001884YS02001887 CONDUIT     64.76     0  01:29      0.16    0.09    1.00
  YS02001890YS02001895 CONDUIT    597.57     0  01:33      0.76    0.28    1.00
  YS02001895YS02001898 CONDUIT    598.92     0  01:33      0.76    1.04    1.00
  YS02001898YS02001901 CONDUIT    600.80     0  01:33      0.76    0.39    1.00
  YS02001901YS02001904 CONDUIT    600.99     0  01:33      0.77    0.93    1.00
  YS02001904YS02001907 CONDUIT    602.04     0  01:33      0.77    0.21    1.00
  YS02001887YS02001890 CONDUIT    816.04     0  01:57      1.04    1.40    1.00
  YS02001652YS02001649 CONDUIT    639.72     0  03:01      0.84    0.32    1.00
  YS02001655YS02001652 CONDUIT    639.63     0  03:01      1.25    0.31    1.00
  YS02001658YS02001655 CONDUIT    639.31     0  03:01      1.61    0.27    1.00
  YS02001661YS02001658 CONDUIT    639.09     0  03:01      1.99    0.25    1.00
  YS02001664YS02001661 CONDUIT    800.45     0  01:40      1.90    0.25    0.84
  YSB1154YSB6556       CONDUIT     59.45     0  01:33      0.17    0.11    0.84
  YSB1174YSB1171       CONDUIT     50.32     0  01:30      0.14    0.08    0.92
  YSB1171HS02004479    CONDUIT    107.71     0  01:33      0.54    0.07    0.78
  HS02004881HS02006253 CONDUIT    209.86     0  01:29      2.77    0.04    0.55
  YS02001793JiankangQianchi CONDUIT   1259.19     0  01:53     20.49    0.10    1.00
  YS02001757CaochengTiaoxuchi CONDUIT   2183.43     0  01:41      3.80    0.96    1.00
  WSF200WS02003060     CONDUIT   1008.63     0  01:34      2.09    0.22    0.46
  1                    CONDUIT   1386.61     0  01:42      3.62    0.48    0.49
  CC-Pump-1            PUMP       200.00     0  03:20              1.00
  CC-Pump-2            PUMP       199.82     0  07:00              1.00
  JK-Pump-1            PUMP       300.00     0  00:00              1.00
  JK-Pump-2            PUMP       683.00     0  00:00              1.00
  XR-Pump-1            PUMP        95.00     0  00:00              1.00
  XR-Pump-2            PUMP        95.00     0  00:00              1.00
  XR-Pump-3            PUMP        95.00     0  00:00              1.00
  XR-Pump-4            PUMP        95.00     0  00:00              1.00
  
  
  ***************************
  Flow Classification Summary
  ***************************
  
  -------------------------------------------------------------------------------------
                      Adjusted    ---------- Fraction of Time in Flow Class ---------- 
                       /Actual         Up    Down  Sub   Sup   Up    Down  Norm  Inlet 
  Conduit               Length    Dry  Dry   Dry   Crit  Crit  Crit  Crit  Ltd   Ctrl  
  -------------------------------------------------------------------------------------
  WS02003066WSF200        1.00   0.01  0.05  0.00  0.00  0.94  0.00  0.00  0.46  0.00
  WS02006287WS02006284    1.00   0.03  0.01  0.00  0.61  0.36  0.00  0.00  0.61  0.00
  WS02006284WS02006280    1.00   0.03  0.00  0.00  0.00  0.00  0.00  0.96  0.00  0.00
  WS02006280WS02006229    1.00   0.04  0.00  0.00  0.05  0.11  0.00  0.81  0.06  0.00
  WS02006229WS02006228    1.00   0.00  0.00  0.00  1.00  0.00  0.00  0.00  0.00  0.00
  WS02006256WS02006235    1.00   0.00  0.00  0.00  1.00  0.00  0.00  0.00  0.00  0.00
  WS02006253WS02006251    1.00   0.01  0.02  0.00  0.96  0.00  0.01  0.00  0.00  0.00
  WS02006252WS02006251    1.00   0.06  0.00  0.00  0.17  0.00  0.76  0.00  0.00  0.00
  WS02006251WS02006249    1.00   0.00  0.00  0.00  1.00  0.00  0.00  0.00  0.17  0.00
  WS02006249WS02006248    1.00   0.00  0.01  0.00  0.93  0.00  0.07  0.00  0.00  0.00
  WS02006248WS02006247    1.00   0.01  0.00  0.00  0.98  0.00  0.00  0.01  0.06  0.00
  WS02006247WS02006245    1.00   0.01  0.00  0.00  0.96  0.00  0.00  0.03  0.00  0.00
  WS02006245WS02006243    1.00   0.00  0.00  0.00  0.95  0.00  0.00  0.05  0.02  0.00
  WS02006243WS02006242    1.00   0.00  0.00  0.00  0.99  0.00  0.00  0.01  0.20  0.00
  WS02006242WS02006240    1.00   0.00  0.00  0.00  0.99  0.00  0.01  0.00  0.00  0.00
  WS02006240WS02006239    1.00   0.00  0.00  0.00  0.94  0.00  0.00  0.06  0.02  0.00
  WS02006239WS02006238    1.00   0.00  0.00  0.00  1.00  0.00  0.00  0.00  0.11  0.00
  WS02006238WS02006235    1.00   0.00  0.00  0.00  1.00  0.00  0.00  0.00  0.00  0.00
  WS02006235WS02006234    1.00   0.00  0.00  0.00  0.96  0.00  0.04  0.00  0.00  0.00
  WS02006234WS02006232    1.00   0.00  0.00  0.00  1.00  0.00  0.00  0.00  0.06  0.00
  WS02006232WS02006231    1.00   0.00  0.00  0.00  1.00  0.00  0.00  0.00  0.00  0.00
  WS02006231WS02006230    1.00   0.00  0.00  0.00  0.69  0.00  0.31  0.00  0.00  0.00
  WS02006230WS02006229    1.00   0.00  0.00  0.00  1.00  0.00  0.00  0.00  0.01  0.00
  WS02006228WS02006109    1.00   0.00  0.00  0.00  1.00  0.00  0.00  0.00  0.00  0.00
  WS02006116WS02004401    1.00   0.01  0.00  0.00  0.99  0.00  0.00  0.00  0.01  0.00
  WS02006115WS02006116    1.00   0.01  0.00  0.00  0.97  0.00  0.00  0.02  0.01  0.00
  WS02006113WS02006111    1.00   0.01  0.00  0.00  0.17  0.82  0.00  0.00  0.12  0.00
  WS02006112WS02006115    1.00   0.01  0.00  0.00  0.99  0.00  0.00  0.00  0.00  0.00
  WS02006111WS02006112    1.00   0.01  0.00  0.00  0.99  0.00  0.00  0.00  0.72  0.00
  WS02006110WS02006113    1.00   0.00  0.00  0.00  0.99  0.00  0.00  0.00  0.00  0.00
  WS02006109WS02006110    1.00   0.00  0.00  0.00  1.00  0.00  0.00  0.00  0.00  0.00
  WS02004411WS02004412    1.00   0.05  0.00  0.00  0.95  0.00  0.00  0.00  0.00  0.00
  WS02004401WS02004402    1.00   0.01  0.00  0.00  0.99  0.00  0.00  0.00  0.01  0.00
  WS02004413WS02003067    1.00   0.05  0.01  0.00  0.00  0.00  0.94  0.00  0.00  0.00
  WS02004412WS02004413    1.00   0.05  0.00  0.00  0.95  0.00  0.00  0.00  0.00  0.00
  WS02004410WS02004411    1.00   0.05  0.00  0.00  0.95  0.00  0.00  0.00  0.00  0.00
  WS02004409WS02004410    1.00   0.05  0.00  0.00  0.95  0.00  0.00  0.00  0.00  0.00
  WS02004407WS02004409    1.00   0.05  0.00  0.00  0.94  0.01  0.00  0.00  0.80  0.00
  WS02004406WS02004407    1.00   0.00  0.05  0.00  0.95  0.00  0.00  0.00  0.00  0.00
  WS02004405WS02004406    1.00   0.00  0.00  0.00  1.00  0.00  0.00  0.00  0.02  0.00
  WS02004404WS02004405    1.00   0.00  0.00  0.00  1.00  0.00  0.00  0.00  0.00  0.00
  WS02004403WS02004404    1.00   0.00  0.01  0.00  0.99  0.00  0.00  0.00  0.02  0.00
  WS02004402WS02004403    1.00   0.01  0.00  0.00  0.99  0.00  0.00  0.00  0.00  0.00
  WS02004139WS02001211    1.00   0.00  0.00  0.00  1.00  0.00  0.00  0.00  0.00  0.00
  WS02004138WS02004139    1.00   0.00  0.00  0.00  1.00  0.00  0.00  0.00  1.00  0.00
  WS02003067WS02003066    1.00   0.06  0.00  0.00  0.94  0.00  0.00  0.00  0.00  0.00
  WS02001213WS02003059    1.00   0.00  0.00  0.00  1.00  0.00  0.00  0.00  0.00  0.00
  WS02001212WS02001213    1.00   0.00  0.00  0.00  0.93  0.00  0.06  0.00  0.00  0.00
  WS02001211WS02001212    1.00   0.00  0.00  0.00  1.00  0.00  0.00  0.00  0.00  0.00
  WS02003072WS02003073    1.00   0.00  0.00  0.00  0.00  0.00  0.00  1.00  0.00  0.00
  WS02003069WS02003072    1.00   0.00  0.00  0.00  1.00  0.00  0.00  0.00  0.07  0.00
  WS02003060WS02003069    1.00   0.00  0.00  0.00  0.99  0.01  0.00  0.00  0.05  0.00
  WS02003059WS02003060    1.00   0.00  0.00  0.00  1.00  0.00  0.00  0.00  0.00  0.00
  HS02004901HS02004770    1.00   0.03  0.00  0.00  0.97  0.00  0.00  0.00  0.00  0.00
  HS02004876HS02004881    1.00   0.01  0.00  0.00  0.80  0.20  0.00  0.00  0.00  0.00
  HS02004870HS02004876    1.00   0.00  0.00  0.00  1.00  0.00  0.00  0.00  0.95  0.00
  HS02004842HS02004848    1.00   0.00  0.03  0.00  0.97  0.00  0.00  0.00  0.53  0.00
  HS02004837HS02004842    1.00   0.00  0.00  0.00  1.00  0.00  0.00  0.00  0.11  0.00
  HS02004830HS02004837    1.00   0.00  0.00  0.00  1.00  0.00  0.00  0.00  0.99  0.00
  HS02004824HS02004830    1.00   0.00  0.00  0.00  1.00  0.00  0.00  0.00  0.03  0.00
  HS02004817HS02004824    1.00   0.00  0.00  0.00  1.00  0.00  0.00  0.00  0.86  0.00
  HS02004770HS02004777    1.00   0.00  0.03  0.00  0.97  0.00  0.00  0.00  0.01  0.00
  HS02004799HS02004480    1.00   0.00  0.01  0.00  0.96  0.00  0.03  0.00  0.00  0.00
  HS02004792HS02004799    1.00   0.00  0.00  0.00  1.00  0.00  0.00  0.00  0.98  0.00
  HS02004788HS02004792    1.00   0.00  0.00  0.00  1.00  0.00  0.00  0.00  0.98  0.00
  HS02004785HS02004788    1.00   0.00  0.00  0.00  1.00  0.00  0.00  0.00  0.00  0.00
  HS02004777HS02004785    1.00   0.00  0.00  0.00  1.00  0.00  0.00  0.00  0.10  0.00
  HS02004480HS02004478    1.00   0.03  0.00  0.00  0.67  0.00  0.00  0.30  0.00  0.00
  HS02004479HS02004480    1.00   0.01  0.00  0.00  0.99  0.00  0.00  0.00  0.10  0.00
  HS02004862HS02004870    1.00   0.00  0.00  0.00  1.00  0.00  0.00  0.00  0.02  0.00
  HS02004848HS02004852    1.00   0.03  0.00  0.00  0.97  0.00  0.00  0.00  0.83  0.00
  HS02004856HS02004862    1.00   0.00  0.04  0.00  0.96  0.00  0.00  0.00  0.85  0.00
  HS02004852HS02004856    1.00   0.03  0.00  0.00  0.97  0.00  0.00  0.00  0.69  0.00
  HS02004802HS02004478    1.00   0.03  0.00  0.00  0.97  0.00  0.00  0.00  0.01  0.00
  HS02004478WS02006287    1.00   0.04  0.00  0.00  0.72  0.25  0.00  0.00  0.58  0.00
  HS02004817HS02004807    1.00   0.00  0.03  0.00  0.97  0.00  0.00  0.00  0.01  0.00
  HS02004807HS02004802    1.00   0.03  0.00  0.00  0.96  0.00  0.00  0.00  0.00  0.00
  YS02001759YS02001757    1.00   0.00  0.00  0.00  1.00  0.00  0.00  0.00  0.15  0.00
  YS02001762YS02001759    1.00   0.00  0.00  0.00  1.00  0.00  0.00  0.00  0.01  0.00
  YS02001765YS02001762    1.00   0.00  0.00  0.00  1.00  0.00  0.00  0.00  0.13  0.00
  YS02001770YS02001767    1.00   0.00  0.00  0.00  1.00  0.00  0.00  0.00  0.00  0.00
  YS02001774YS02001770    1.00   0.00  0.03  0.00  0.97  0.00  0.00  0.00  0.01  0.00
  YS02001779YS02001774    1.00   0.00  0.00  0.00  1.00  0.00  0.00  0.00  0.15  0.00
  YS02001649YS02001757    1.00   0.00  0.00  0.00  1.00  0.00  0.00  0.00  0.14  0.00
  YS02001767YS02001765    1.00   0.00  0.00  0.00  1.00  0.00  0.00  0.00  0.00  0.00
  YS02006561YS02001783    1.00   0.04  0.00  0.00  0.49  0.47  0.00  0.00  0.38  0.00
  YS02001783YS02001784    1.00   0.00  0.04  0.00  0.96  0.00  0.00  0.00  0.00  0.00
  YS02001784YS02001785    1.00   0.00  0.00  0.00  1.00  0.00  0.00  0.00  0.15  0.00
  YS02001788YS02001790    1.00   0.00  0.00  0.00  0.48  0.52  0.00  0.00  0.33  0.00
  YS02001790YS02001791    1.00   0.00  0.00  0.00  0.43  0.57  0.00  0.00  0.36  0.00
  YS02001791YS02001793    1.00   0.00  0.00  0.00  0.45  0.55  0.00  0.00  0.03  0.00
  YS02001910YS02001907    1.00   0.00  0.00  0.00  0.99  0.00  0.00  0.01  0.11  0.00
  YS02001786YS02001788    1.00   0.00  0.00  0.00  0.50  0.50  0.00  0.00  0.00  0.00
  YS02001915YS02001910    1.00   0.00  0.00  0.00  0.99  0.01  0.00  0.00  0.12  0.00
  YS02001918YS02001915    1.00   0.00  0.00  0.00  0.99  0.00  0.00  0.00  0.44  0.00
  YS02001923YS02001920    1.00   0.00  0.00  0.00  1.00  0.00  0.00  0.00  0.65  0.00
  YS02001926YS02001923    1.00   0.00  0.02  0.00  0.31  0.00  0.67  0.00  0.00  0.00
  YS02001929YS02001926    1.00   0.00  0.03  0.00  0.97  0.00  0.00  0.00  0.56  0.00
  YS02001920YS02001918    1.00   0.00  0.00  0.00  1.00  0.00  0.00  0.00  0.00  0.00
  YS02001629YS02163301    1.00   0.03  0.00  0.00  0.96  0.00  0.00  0.00  0.00  0.00
  YS02001619YS02001622    1.00   0.03  0.00  0.00  0.97  0.00  0.00  0.00  0.00  0.00
  YS02001622YS02001625    1.00   0.03  0.00  0.00  0.97  0.00  0.00  0.00  0.02  0.00
  YS02001625YS02001629    1.00   0.03  0.01  0.00  0.95  0.00  0.01  0.00  0.00  0.00
  YS02163301YS02001633    1.00   0.00  0.03  0.00  0.97  0.00  0.00  0.00  0.00  0.00
  YS02163601YS02164001    1.00   0.00  0.02  0.00  0.98  0.00  0.00  0.00  0.00  0.00
  YS02164001YS02001641    1.00   0.00  0.02  0.00  0.98  0.00  0.00  0.00  0.05  0.00
  YS02001641YS02001644    1.00   0.00  0.00  0.00  1.00  0.00  0.00  0.00  0.00  0.00
  YS02001647YS02001649    1.00   0.00  0.04  0.00  0.96  0.00  0.00  0.00  0.01  0.00
  YS02006553YS02006556    1.00   0.00  0.00  0.00  1.00  0.00  0.00  0.00  0.03  0.00
  YS02006556YS02006558    1.00   0.00  0.00  0.00  1.00  0.00  0.00  0.00  0.00  0.00
  YSB6556YSB1171          1.00   0.01  0.02  0.00  0.97  0.00  0.00  0.00  0.00  0.00
  YS02001907YS02006553    1.00   0.00  0.01  0.00  0.99  0.00  0.00  0.00  0.00  0.00
  YS02006558YS02006561    1.00   0.04  0.00  0.00  0.31  0.65  0.00  0.00  0.35  0.00
  YS02001633YS02163601    1.00   0.00  0.00  0.00  1.00  0.00  0.00  0.00  0.14  0.00
  YS02001644YS02001647    1.00   0.00  0.04  0.00  0.96  0.00  0.00  0.00  0.00  0.00
  YS02001745YS02001748    1.00   0.00  0.00  0.00  0.94  0.00  0.00  0.06  0.00  0.00
  YS02001748YS02001751    1.00   0.00  0.00  0.00  0.98  0.02  0.00  0.00  0.13  0.00
  YS02001751YS02001754    1.00   0.00  0.00  0.00  0.96  0.00  0.00  0.04  0.01  0.00
  YS02001754YS02001757    1.00   0.00  0.00  0.00  1.00  0.00  0.00  0.00  0.15  0.00
  YS02001882YS02001884    1.00   0.04  0.00  0.00  0.96  0.00  0.00  0.00  0.00  0.00
  YS02001884YS02001887    1.00   0.02  0.01  0.00  0.97  0.00  0.00  0.00  0.00  0.00
  YS02001890YS02001895    1.00   0.00  0.03  0.00  0.96  0.00  0.00  0.00  0.00  0.00
  YS02001895YS02001898    1.00   0.04  0.00  0.00  0.96  0.00  0.01  0.00  0.00  0.00
  YS02001898YS02001901    1.00   0.04  0.00  0.00  0.96  0.00  0.00  0.00  0.00  0.00
  YS02001901YS02001904    1.00   0.04  0.00  0.00  0.96  0.00  0.00  0.00  0.00  0.00
  YS02001904YS02001907    1.00   0.00  0.04  0.00  0.96  0.00  0.00  0.00  0.00  0.00
  YS02001887YS02001890    1.00   0.00  0.00  0.00  0.99  0.00  0.01  0.00  0.00  0.00
  YS02001652YS02001649    1.00   0.00  0.00  0.00  1.00  0.00  0.00  0.00  0.14  0.00
  YS02001655YS02001652    1.00   0.00  0.00  0.00  0.96  0.00  0.00  0.04  0.01  0.00
  YS02001658YS02001655    1.00   0.00  0.03  0.00  0.95  0.02  0.00  0.00  0.01  0.00
  YS02001661YS02001658    1.00   0.03  0.00  0.00  0.94  0.03  0.00  0.00  0.00  0.00
  YS02001664YS02001661    1.00   0.03  0.00  0.00  0.94  0.02  0.00  0.00  0.06  0.00
  YSB1154YSB6556          1.00   0.03  0.00  0.00  0.97  0.00  0.00  0.00  0.01  0.00
  YSB1174YSB1171          1.00   0.01  0.01  0.00  0.98  0.00  0.00  0.00  0.00  0.00
  YSB1171HS02004479       1.00   0.01  0.00  0.00  0.99  0.00  0.00  0.00  0.09  0.00
  HS02004881HS02006253    1.00   0.01  0.00  0.00  0.71  0.01  0.00  0.26  0.57  0.00
  YS02001793JiankangQianchi    1.00   0.00  0.00  0.00  0.71  0.29  0.00  0.00  0.35  0.00
  YS02001757CaochengTiaoxuchi    1.00   0.00  0.05  0.00  0.93  0.03  0.00  0.00  0.00  0.00
  WSF200WS02003060        1.00   0.00  0.01  0.00  0.99  0.01  0.00  0.00  0.43  0.00
  1                       1.00   0.00  0.00  0.00  0.00  1.00  0.00  0.00  0.55  0.00
  
  
  *************************
  Conduit Surcharge Summary
  *************************
  
  ----------------------------------------------------------------------------
                                                           Hours        Hours 
                         --------- Hours Full --------   Above Full   Capacity
  Conduit                Both Ends  Upstream  Dnstream   Normal Flow   Limited
  ----------------------------------------------------------------------------
  WS02006280WS02006229        0.01      0.01      0.01      0.01         0.01
  WS02006229WS02006228        3.53      3.63      3.53      5.15         3.52
  WS02006256WS02006235        6.06      6.06      6.90      5.18         0.01
  WS02006253WS02006251        2.09      2.09      2.19      0.01         0.03
  WS02006252WS02006251        0.96      0.96      1.73      0.64         0.01
  WS02006251WS02006249        2.14      2.14      2.27      0.16         0.06
  WS02006249WS02006248        2.21      2.21      2.27      2.27         0.01
  WS02006248WS02006247        2.29      2.29      2.50      0.01         0.01
  WS02006247WS02006245        2.51      2.54      2.51      3.39         1.65
  WS02006245WS02006243        2.56      2.56      2.71      0.06         0.04
  WS02006243WS02006242        2.74      2.74      2.99      0.01         0.01
[...]
  YS02001649YS02001757        6.40      6.40      6.42      0.01         0.01
  YS02001767YS02001765        6.39      6.39      6.40      0.01         0.01
  YS02006561YS02001783        2.41      2.41      2.63      0.01         0.01
  YS02001783YS02001784        2.60      2.63      2.60      2.88         2.60
  YS02001784YS02001785        2.50      2.60      2.50      3.56         2.50
  YS02001788YS02001790        1.89      1.89      2.64      0.01         0.01
  YS02001790YS02001791        2.63      2.64      2.71      2.59         1.99
  YS02001791YS02001793        2.71      2.71      3.07      0.01         0.01
  YS02001910YS02001907        2.68      2.68      3.13      0.01         0.01
  YS02001786YS02001788        1.89      2.50      1.89      3.28         1.89
  YS02001915YS02001910        2.54      2.54      2.68      0.01         0.01
  YS02001918YS02001915        2.39      2.39      2.54      0.01         0.01
  YS02001923YS02001920        2.25      2.25      2.42      0.01         0.01
  YS02001926YS02001923        0.01      0.01      0.01      0.01         0.01
  YS02001929YS02001926        0.01      0.01      0.01      0.01         0.01
  YS02001920YS02001918        2.39      2.39      2.42      0.01         0.01
  YS02001629YS02163301        6.38      6.38      6.39      0.01         0.01
  YS02001619YS02001622        6.37      6.37      6.37      0.01         0.04
  YS02001622YS02001625        6.37      6.37      6.38      0.01         0.01
  YS02001625YS02001629        6.37      6.37      6.38      0.01         0.01
  YS02163301YS02001633        6.39      6.39      6.40      0.01         0.01
  YS02163601YS02164001        6.40      6.40      6.40      0.01         0.01
  YS02164001YS02001641        6.40      6.40      6.40      0.01         0.02
  YS02001641YS02001644        6.40      6.40      6.40      3.17         3.28
  YS02001647YS02001649        6.38      6.38      6.40      0.01         0.01
  YS02006553YS02006556        2.84      2.84      3.20      0.01         0.01
  YS02006556YS02006558        2.95      2.95      3.24      0.01         0.01
  YSB6556YSB1171              0.01      0.01      0.58      0.01         0.01
  YS02001907YS02006553        3.64      3.64      3.83      0.01         0.01
  YS02006558YS02006561        2.49      2.82      2.49      3.49         2.49
  YS02001633YS02163601        6.40      6.40      6.40      0.01         0.01
  YS02001644YS02001647        6.38      6.38      6.40      0.01         0.01
  YS02001745YS02001748        1.07      1.07      6.35      0.01         0.01
  YS02001748YS02001751        6.35      6.35      6.36      0.01         0.01
  YS02001751YS02001754        6.36      6.36      6.38      0.01         0.01
  YS02001754YS02001757        6.38      6.38      6.42      0.01         0.01
  YS02001882YS02001884        2.55      2.55      2.56      0.01         0.01
  YS02001884YS02001887        2.60      2.60      2.62      0.01         0.01
  YS02001890YS02001895        2.53      2.53      2.69      0.01         0.01
  YS02001895YS02001898        2.51      2.51      2.53      0.02         0.01
  YS02001898YS02001901        2.53      2.53      2.59      0.01         0.01
  YS02001901YS02001904        2.58      2.58      2.59      0.01         0.01
  YS02001904YS02001907        2.58      2.58      3.22      0.01         0.01
  YS02001887YS02001890        2.64      2.64      2.66      1.66         0.01
  YS02001652YS02001649        6.38      6.38      6.40      0.01         0.01
  YS02001655YS02001652        6.37      6.37      6.38      0.01         0.01
  YS02001658YS02001655        6.35      6.35      6.37      0.01         0.01
  YS02001661YS02001658        1.45      1.45      6.35      0.01         0.01
  YS02001664YS02001661        0.01      0.01      2.70      0.01         0.01
  YSB1174YSB1171              0.01      0.01      0.32      0.01         0.01
  HS02004881HS02006253        0.01      0.01      1.00      0.01         0.01
  YS02001793JiankangQianchi        2.97      2.97      4.75      0.01         0.01
  YS02001757CaochengTiaoxuchi        5.98      5.98      6.42      0.01         0.01
  
  
  ***************
  Pumping Summary
  ***************
  
  ---------------------------------------------------------------------------------------------------------
                                                  Min       Avg       Max     Total     Power    % Time Off
                        Percent   Number of      Flow      Flow      Flow    Volume     Usage    Pump Curve
  Pump                 Utilized   Start-Ups       LPS       LPS       LPS  10^6 ltr     Kw-hr    Low   High
  ---------------------------------------------------------------------------------------------------------
  CC-Pump-1               57.42           6      0.00    141.32    200.00     2.100      1.47    0.0    0.0
  CC-Pump-2               17.01           4      0.00     94.08    199.82     0.480      0.51    0.0    0.0
  JK-Pump-1               72.34           4      0.00    253.03    300.00     5.050     65.10    0.0    0.0
  JK-Pump-2               65.95           4      0.00    502.13    683.00     9.461    115.46    0.0   96.0
  XR-Pump-1              100.00           1      0.00     94.53     95.00     2.622     19.46    0.0    0.0
  XR-Pump-2              100.00           1      0.00     94.05     95.00     2.565     18.33    0.0    0.0
  XR-Pump-3              100.00           1      0.00     94.05     95.00     2.565     18.33    0.0    0.0
  XR-Pump-4              100.00           1      0.00     94.05     95.00     2.565     18.33    0.0    0.0
  
  
  ***************************
  Link Pollutant Load Summary
  ***************************
  
  ------------------------------------------------------------------------------------------
                                 COD            SS            TN            TP         NH4-N
  Link                            kg            kg            kg            kg            kg
  ------------------------------------------------------------------------------------------
  WS02003066WSF200          1337.685      2613.460        31.490         2.597        16.079
  WS02006287WS02006284       662.597      1308.380        17.241         1.527         9.011
  WS02006284WS02006280       663.068      1309.123        17.288         1.533         9.041
  WS02006280WS02006229       663.138      1309.345        17.287         1.533         9.040
  WS02006229WS02006228      1334.143      2607.350        30.963         2.522        15.744
  WS02006256WS02006235       330.588       629.538         7.080         0.531         3.526
  WS02006253WS02006251       130.183       263.777         2.741         0.199         1.338
  WS02006252WS02006251       303.073       595.658         5.700         0.394         2.742
  WS02006251WS02006249       422.364       838.209         8.250         0.580         3.991
  WS02006249WS02006248       380.500       749.867         7.448         0.524         3.604
  WS02006248WS02006247       379.445       745.126         7.501         0.532         3.644
  WS02006247WS02006245       378.435       742.612         7.488         0.532         3.639
  WS02006245WS02006243       377.807       741.009         7.475         0.531         3.633
  WS02006243WS02006242       378.310       741.562         7.486         0.533         3.639
  WS02006242WS02006240       378.120       740.925         7.476         0.532         3.634
  WS02006240WS02006239       379.569       743.778         7.495         0.533         3.642
  WS02006239WS02006238       382.793       750.318         7.550         0.537         3.669
  WS02006238WS02006235       385.137       755.184         7.581         0.538         3.681
  WS02006235WS02006234       675.936      1307.566        13.796         0.999         6.767
  WS02006234WS02006232       675.378      1306.502        13.783         0.998         6.760
  WS02006232WS02006231       675.437      1306.618        13.793         1.000         6.767
  WS02006231WS02006230       676.223      1308.231        13.819         1.002         6.781
  WS02006230WS02006229       678.691      1313.052        13.889         1.009         6.819
  WS02006228WS02006109      1332.668      2604.561        30.923         2.518        15.723
  WS02006116WS02004401      1359.429      2654.963        32.012         2.640        16.349
  WS02006115WS02006116      1361.287      2658.531        32.055         2.643        16.370
  WS02006113WS02006111      1337.872      2612.184        31.641         2.611        16.180
  WS02006112WS02006115      1363.267      2662.277        32.113         2.649        16.402
  WS02006111WS02006112      1336.832      2610.084        31.613         2.609        16.165
  WS02006110WS02006113      1338.520      2613.267        31.666         2.614        16.194
  WS02006109WS02006110      1339.977      2615.858        31.718         2.619        16.223
  WS02004411WS02004412      1343.214      2623.834        31.672         2.615        16.180
  WS02004401WS02004402      1357.328      2650.988        31.954         2.634        16.317
  WS02004413WS02003067      1339.109      2616.201        31.527         2.600        16.098
  WS02004412WS02004413      1341.147      2619.928        31.612         2.609        16.147
  WS02004410WS02004411      1344.938      2627.106        31.720         2.619        16.205
  WS02004409WS02004410      1346.574      2630.193        31.767         2.623        16.231
  WS02004407WS02004409      1348.093      2633.084        31.804         2.626        16.250
  WS02004406WS02004407      1348.583      2634.010        31.810         2.627        16.252
  WS02004405WS02004406      1351.209      2638.890        31.905         2.636        16.306
  WS02004404WS02004405      1353.480      2643.365        31.929         2.636        16.314
  WS02004403WS02004404      1353.580      2643.882        31.854         2.626        16.264
  WS02004402WS02004403      1355.325      2647.175        31.904         2.630        16.291
  WS02004139WS02001211      1295.727      2247.875        87.479        10.349        52.988
  WS02004138WS02004139      1300.927      2256.867        87.814        10.388        53.190
  WS02003067WS02003066      1337.929      2613.916        31.499         2.598        16.084
  WS02001213WS02003059      1330.844      2302.623        91.202        10.821        55.332
  WS02001212WS02001213      1338.389      2315.504        91.732        10.884        55.654
  WS02001211WS02001212      1340.647      2319.194        91.927        10.908        55.775
  WS02003072WS02003073      2767.627      5072.543       132.711        14.678        77.694
  WS02003069WS02003072      2773.048      5081.461       133.168        14.734        77.977
  WS02003060WS02003069      2775.965      5086.740       133.302        14.749        78.055
  WS02003059WS02003060      1328.242      2298.039        91.056        10.804        55.246
  HS02004901HS02004770        31.237        62.177         0.612         0.047         0.291
  HS02004876HS02004881       101.410       206.320         2.154         0.154         1.046
  HS02004870HS02004876        77.886       158.590         1.699         0.122         0.826
  HS02004842HS02004848        14.996        29.643         0.314         0.022         0.147
  HS02004837HS02004842        19.706        37.148         0.788         0.082         0.444
  HS02004830HS02004837       101.805       187.052         5.288         0.600         3.141
  HS02004824HS02004830       102.660       188.501         5.364         0.610         3.188
  HS02004817HS02004824       158.467       303.815         6.498         0.682         3.738
  HS02004770HS02004777       119.644       241.808         2.495         0.175         1.169
  HS02004799HS02004480       374.810       742.417         8.578         0.702         4.269
  HS02004792HS02004799       343.075       676.923         8.002         0.666         3.998
  HS02004788HS02004792       180.007       356.923         4.686         0.402         2.399
  HS02004785HS02004788       121.021       244.008         2.637         0.193         1.258
  HS02004777HS02004785       120.341       242.929         2.574         0.185         1.219
  HS02004480HS02004478       464.795       922.640        10.233         0.827         5.069
  HS02004479HS02004480        93.768       186.470         1.954         0.161         0.984
  HS02004862HS02004870        60.202       121.267         1.340         0.100         0.653
  HS02004848HS02004852        26.761        53.671         0.548         0.038         0.256
  HS02004856HS02004862        41.868        85.058         0.850         0.058         0.403
  HS02004852HS02004856        26.784        53.714         0.548         0.038         0.257
  HS02004802HS02004478       198.948       387.605         7.078         0.708         3.984
  HS02004478WS02006287       662.685      1308.434        17.257         1.529         9.021
  HS02004817HS02004807       157.274       302.036         6.357         0.664         3.649
  HS02004807HS02004802       198.915       387.510         7.102         0.712         4.000
  YS02001759YS02001757       560.187      1086.235        10.867         0.771         5.298
  YS02001762YS02001759       368.734       709.731         7.398         0.528         3.626
  YS02001765YS02001762       370.263       714.153         7.438         0.532         3.648
  YS02001770YS02001767       378.445       733.989         7.502         0.529         3.664
  YS02001774YS02001770       846.803      1678.928        16.642         1.137         8.086
  YS02001779YS02001774       846.525      1678.538        16.708         1.148         8.132
  YS02001649YS02001757       777.145      1506.874        15.475         1.061         7.491
  YS02001767YS02001765       373.396       721.793         7.509         0.537         3.685
  YS02006561YS02001783      1661.537      3192.834        34.254         2.508        16.887
  YS02001783YS02001784      1661.423      3192.654        34.249         2.507        16.884
  YS02001784YS02001785      1668.823      3204.553        34.962         2.597        17.330
  YS02001788YS02001790      1669.422      3205.550        35.033         2.606        17.375
  YS02001790YS02001791      1670.360      3207.120        35.130         2.618        17.436
  YS02001791YS02001793      1670.612      3207.645        35.132         2.618        17.436
  YS02001910YS02001907       950.064      1845.853        20.330         1.452        10.114
  YS02001786YS02001788      1669.056      3204.988        34.990         2.600        17.348
  YS02001915YS02001910       950.188      1846.061        20.291         1.447        10.087
  YS02001918YS02001915       472.368       886.511        10.545         0.858         5.396
  YS02001923YS02001920       446.715       842.415         8.510         0.611         4.140
  YS02001926YS02001923       443.827       837.195         8.396         0.599         4.075
  YS02001929YS02001926       441.547       833.164         8.304         0.590         4.022
  YS02001920YS02001918       467.808       876.874        10.447         0.851         5.347
  YS02001629YS02163301       210.570       398.313         4.144         0.295         1.982
  YS02001619YS02001622       451.027       868.451         9.084         0.615         4.291
  YS02001622YS02001625       450.721       868.057         9.072         0.614         4.286
  YS02001625YS02001629       204.942       387.305         4.044         0.287         1.932
  YS02163301YS02001633       216.305       409.557         4.243         0.303         2.032
  YS02163601YS02164001       715.849      1349.359        13.898         1.021         6.716
  YS02164001YS02001641       716.531      1350.589        13.898         1.021         6.714
  YS02001641YS02001644       718.932      1354.928        13.933         1.023         6.730
  YS02001647YS02001649       904.327      1738.365        18.222         1.274         8.756
  YS02006553YS02006556       870.966      1639.267        18.654         1.398         9.318
  YS02006556YS02006558       871.521      1640.320        18.622         1.393         9.295
  YSB6556YSB1171              54.544       108.515         1.086         0.087         0.541
  YS02001907YS02006553       870.761      1638.854        18.699         1.405         9.348
  YS02006558YS02006561      1661.475      3192.698        34.253         2.508        16.886
  YS02001633YS02163601       716.403      1350.272        13.875         1.017         6.698
  YS02001644YS02001647       911.677      1752.895        18.333         1.283         8.808
  YS02001745YS02001748       597.867      1178.520        11.860         0.761         5.723
  YS02001748YS02001751       597.408      1177.772        11.871         0.763         5.732
  YS02001751YS02001754       596.765      1176.740        11.860         0.763         5.728
  YS02001754YS02001757       597.935      1178.604        12.029         0.786         5.837
  YS02001882YS02001884         4.745         8.604         0.088         0.007         0.043
  YS02001884YS02001887         8.335        15.318         0.154         0.012         0.075
  YS02001890YS02001895       827.640      1599.298        15.731         1.199         7.703
  YS02001895YS02001898       827.488      1599.139        15.724         1.198         7.699
  YS02001898YS02001901       827.266      1598.694        15.720         1.198         7.697
  YS02001901YS02001904       827.172      1598.587        15.735         1.200         7.707
  YS02001904YS02001907       827.535      1599.095        15.796         1.208         7.746
  YS02001887YS02001890      1075.706      2094.515        20.305         1.549         9.938
  YS02001652YS02001649       546.773      1058.433        10.903         0.796         5.149
  YS02001655YS02001652       547.140      1059.051        10.915         0.797         5.155
  YS02001658YS02001655       546.625      1058.284        10.828         0.785         5.098
  YS02001661YS02001658       546.916      1058.775        10.835         0.786         5.101
  YS02001664YS02001661       557.228      1074.671        11.100         0.804         5.223
  YSB1154YSB6556              54.069       107.775         1.038         0.081         0.511
  YSB1174YSB1171              37.703        75.533         0.747         0.059         0.369
  YSB1171HS02004479           93.610       186.160         1.960         0.162         0.989
  HS02004881HS02006253       113.898       232.273         2.392         0.170         1.161
  YS02001793JiankangQianchi      1671.090      3208.588        35.141         2.619        17.441
  YS02001757CaochengTiaoxuchi       719.448      1397.253        13.845         0.955         6.679
  WSF200WS02003060          1337.122      2612.305        31.494         2.598        16.083
  1                         2773.693      5080.456       133.703        14.808        78.331
  CC-Pump-1                  247.599       486.904         4.647         0.321         2.234
  CC-Pump-2                   55.072       107.947         1.041         0.072         0.501
  JK-Pump-1                  492.539       948.613        10.211         0.753         5.046
  JK-Pump-2                 1041.004      2023.189        21.170         1.551        10.420
  XR-Pump-1                  333.780       577.973        22.755         2.697        13.798
  XR-Pump-2                  323.347       561.280        21.754         2.572        13.172
  XR-Pump-3                  323.347       561.280        21.754         2.572        13.172
  XR-Pump-4                  323.347       561.280        21.754         2.572        13.172
  

  Analysis begun on:  Sun Jun 13 15:37:09 2021
  Analysis ended on:  Sun Jun 13 15:37:12 2021
  Total elapsed time: 00:00:03