
  EPA STORM WATER MANAGEMENT MODEL - VERSION 5.1 (Build 5.2.0.dev5)
  --------------------------------------------------------------

  
  *********************************************************
  NOTE: The summary statistics displayed in this report are
  based on results found at every computational time step,  
  not just on results from each reporting time step.
  *********************************************************
  
  ****************
  Analysis Options
  ****************
  Flow Units ............... MLD
  Process Models:
    Rainfall/Runoff ........ YES
    RDII ................... NO
    Snowmelt ............... NO
    Groundwater ............ NO
    Flow Routing ........... YES
    Ponding Allowed ........ NO
    Water Quality .......... YES
  Infiltration Method ...... GREEN_AMPT
  Flow Routing Method ...... DYNWAVE
  Surcharge Method ......... EXTRAN
  Starting Date ............ 08/28/2015 08:00:00
  Ending Date .............. 08/28/2015 15:50:00
  Antecedent Dry Days ...... 4.0
  Report Time Step ......... 00:01:00
  Wet Time Step ............ 00:01:00
  Dry Time Step ............ 00:01:00
  Routing Time Step ........ 5.00 sec
  Variable Time Step ....... YES
  Maximum Trials ........... 8
  Number of Threads ........ 1
  Head Tolerance ........... 0.001500 m
  
  
  **************************        Volume         Depth
  Runoff Quantity Continuity     hectare-m            mm
  **************************     ---------       -------
  Total Precipitation ......         4.719        16.729
  Evaporation Loss .........         0.000         0.000
  Infiltration Loss ........         2.575         9.130
  Surface Runoff ...........         1.805         6.399
  Final Storage ............         0.339         1.202
  Continuity Error (%) .....        -0.011
  
  
  **************************           COD         NH3-N            TN            TP            SS
  Runoff Quality Continuity             kg            kg            kg            kg            kg
  **************************    ----------    ----------    ----------    ----------    ----------
  Initial Buildup ..........     13074.240         0.000         0.000         0.000         0.000
  Surface Buildup ..........       142.452         0.000         0.000         0.000         0.000
  Wet Deposition ...........         0.000         0.000         0.000         0.000         0.000
  Sweeping Removal .........         0.000         0.000         0.000         0.000         0.000
  Infiltration Loss ........       318.703         0.000         0.000         0.000         0.000
  BMP Removal ..............         0.000         0.000         0.000         0.000         0.000
  Surface Runoff ...........      2198.462         0.000         0.000         0.000         0.000
  Remaining Buildup ........     10698.320         0.000         0.000         0.000         0.000
  Continuity Error (%) .....         0.009         0.000         0.000         0.000         0.000
  
  
  **************************        Volume        Volume
  Flow Routing Continuity        hectare-m      10^6 ltr
  **************************     ---------     ---------
  Dry Weather Inflow .......         0.000         0.000
  Wet Weather Inflow .......         1.804        18.043
  Groundwater Inflow .......         0.000         0.000
  RDII Inflow ..............         0.000         0.000
  External Inflow ..........         1.014        10.135
  External Outflow .........         1.028        10.283
  Flooding Loss ............         1.798        17.975
  Evaporation Loss .........         0.000         0.000
  Exfiltration Loss ........         0.000         0.000
  Initial Stored Volume ....         0.000         0.000
  Final Stored Volume ......         0.046         0.457
  Continuity Error (%) .....        -1.904
  
  
  **************************           COD         NH3-N            TN            TP            SS
  Quality Routing Continuity            kg            kg            kg            kg            kg
  **************************    ----------    ----------    ----------    ----------    ----------
  Dry Weather Inflow .......         0.000         0.000         0.000         0.000         0.000
  Wet Weather Inflow .......      2198.362         0.000         0.000         0.000         0.000
  Groundwater Inflow .......         0.000         0.000         0.000         0.000         0.000
  RDII Inflow ..............         0.000         0.000         0.000         0.000         0.000
  External Inflow ..........      1692.562         0.000         0.000         0.000         0.000
  External Outflow .........      1438.565         0.000         0.000         0.000         0.000
  Flooding Loss ............      2222.631         0.000         0.000         0.000         0.000
  Exfiltration Loss ........         0.000         0.000         0.000         0.000         0.000
  Mass Reacted .............         0.000         0.000         0.000         0.000         0.000
  Initial Stored Mass ......         0.000         0.000         0.000         0.000         0.000
  Final Stored Mass ........        51.023         0.000         0.000         0.000         0.000
  Continuity Error (%) .....         4.593         0.000         0.000         0.000         0.000
  
  
  *************************
  Highest Continuity Errors
  *************************
  Node XR-storage (-19.31%)
  Node WS02004997 (1.05%)
  
  
  ***************************
  Time-Step Critical Elements
  ***************************
  Link WSL2448 (32.10%)
  Link WSL1477 (24.05%)
  Link WSL1516 (22.44%)
  Link XRpipe (12.21%)
  Link WSL2867 (9.00%)
  
  
  ********************************
  Highest Flow Instability Indexes
  ********************************
  Link WSL1477 (91)
  Link WSL1516 (90)
  Link WSL1515 (18)
  Link WSL2867 (14)
  Link WSL2868 (12)
  
  
  *************************
  Routing Time Step Summary
  *************************
  Minimum Time Step           :     1.14 sec
  Average Time Step           :     2.80 sec
  Maximum Time Step           :     5.00 sec
  Percent in Steady State     :    -0.00
  Average Iterations per Step :     2.44
  Percent Not Converging      :     3.89
  
  
  ***************************
  Subcatchment Runoff Summary
  ***************************
  
  ------------------------------------------------------------------------------------------------------------------------------
                            Total      Total      Total      Total     Imperv       Perv      Total       Total     Peak  Runoff
                           Precip      Runon       Evap      Infil     Runoff     Runoff     Runoff      Runoff   Runoff   Coeff
  Subcatchment                 mm         mm         mm         mm         mm         mm         mm    10^6 ltr      MLD
  ------------------------------------------------------------------------------------------------------------------------------
  1                         16.73      24.44       0.00      14.67      10.22      14.22      24.43        0.30     2.65   0.594
  2                         16.73       0.00       0.00      10.64       4.15       1.90       6.06        0.20     3.39   0.362
  3                         16.73       0.00       0.00      10.90       4.15       1.65       5.79        0.30     4.83   0.346
  4                         16.73       0.00       0.00      10.49       4.16       2.06       6.22        0.17     2.76   0.372
  5                         16.73      15.05       0.00      13.82       7.90       9.01      16.92        0.29     3.25   0.532
  6                         16.73       0.00       0.00      10.88       4.15       1.67       5.81        0.29     4.70   0.348
  7                         16.73       0.00       0.00       7.19       7.70       0.00       7.70       12.31    98.68   0.460
  8                         16.73       0.00       0.00      10.79       4.15       1.76       5.91        0.25     4.13   0.353
  9                         16.73       5.83       0.00      12.72       5.59       3.71       9.31        0.35     4.72   0.413
  17                        16.73       0.00       0.00      10.70       4.15       1.85       6.00        0.22     3.65   0.359
  18                        16.73       0.00       0.00      10.80       4.15       1.75       5.89        0.26     4.21   0.352
  28                        16.73      22.78       0.00      15.23       9.77      11.52      21.29        0.56     4.86   0.539
  29                        16.73       9.46       0.00      13.13       6.49       5.48      11.97        0.29     3.15   0.457
  30                        16.73      23.00       0.00      14.23       9.90      14.63      24.52        0.23     2.55   0.617
  31                        16.73       0.00       0.00      10.68       4.15       1.87       6.02        0.21     3.54   0.360
  33                        16.73       0.00       0.00       9.67       4.17       2.88       7.05        0.06     1.04   0.421
  34                        16.73      12.93       0.00      13.66       7.38       7.64      15.02        0.31     3.63   0.506
  35                        16.73       0.00       0.00      10.57       4.16       1.97       6.13        0.19     3.09   0.366
  36                        16.73      13.00       0.00      14.39       7.34       5.75      13.09        0.77     8.38   0.440
  39                        16.73       0.00       0.00      10.65       4.15       1.90       6.05        0.21     3.42   0.362
  40                        16.73       3.20       0.00      12.13       4.94       2.77       7.71        0.30     4.41   0.387
  41                        16.73       0.00       0.00      10.27       4.16       2.28       6.44        0.12     2.10   0.385
  42                        16.73       0.00       0.00      10.38       4.16       2.17       6.33        0.14     2.42   0.378
  43                        16.73       0.00       0.00       8.96       4.17       3.59       7.76        0.03     0.49   0.464
  44                        16.73     216.31       0.00      21.42      58.03     147.22     205.25        0.76     7.11   0.881
  45                        16.73       0.00       0.00       9.80       4.17       2.75       6.92        0.07     1.21   0.414
  46                        16.73      10.45       0.00      13.27       6.75       6.32      13.08        0.28     3.30   0.481
  47                        16.73       0.00       0.00       9.85       4.17       2.69       6.86        0.08     1.29   0.410
  48                        16.73       4.82       0.00      11.88       5.36       4.28       9.64        0.15     2.15   0.447
  55                        16.73       7.16       0.00      11.79       5.96       6.13      12.08        0.10     1.35   0.506
  56                        16.73      11.49       0.00      13.44       7.01       6.81      13.82        0.30     3.38   0.490
  57                        16.73       0.00       0.00      10.89       4.15       1.66       5.81        0.29     4.75   0.347
  59                        16.73       0.00       0.00       9.64       4.17       2.91       7.08        0.06     1.01   0.423
  60                        16.73      15.69       0.00      12.85       8.09      11.45      19.54        0.10     1.24   0.603
  61                        16.73       0.00       0.00      11.53       4.10       1.01       5.12        0.92    13.87   0.306
  62                        16.73       0.00       0.00      11.55       4.10       0.99       5.09        0.97    14.49   0.304
  64                        16.73       0.00       0.00       9.91       4.17       2.63       6.80        0.08     1.38   0.406
  
  
  ****************************
  Subcatchment Washoff Summary
  ****************************
  
  ------------------------------------------------------------------------------------------
                                 COD         NH3-N            TN            TP            SS
  Subcatchment                    kg            kg            kg            kg            kg
  ------------------------------------------------------------------------------------------
  1                           48.926         0.000         0.000         0.000         0.000
  2                            0.000         0.000         0.000         0.000         0.000
  3                            0.000         0.000         0.000         0.000         0.000
  4                           24.325         0.000         0.000         0.000         0.000
  5                           73.589         0.000         0.000         0.000         0.000
  6                           39.564         0.000         0.000         0.000         0.000
  7                         1242.233         0.000         0.000         0.000         0.000
  8                           35.089         0.000         0.000         0.000         0.000
  9                           70.459         0.000         0.000         0.000         0.000
  17                          31.326         0.000         0.000         0.000         0.000
  18                          35.738         0.000         0.000         0.000         0.000
  28                         178.417         0.000         0.000         0.000         0.000
  29                          74.761         0.000         0.000         0.000         0.000
  30                          59.080         0.000         0.000         0.000         0.000
  31                          30.518         0.000         0.000         0.000         0.000
  33                          10.128         0.000         0.000         0.000         0.000
  34                          78.701         0.000         0.000         0.000         0.000
  35                          26.946         0.000         0.000         0.000         0.000
  36                         196.700         0.000         0.000         0.000         0.000
  39                          29.568         0.000         0.000         0.000         0.000
  40                          53.794         0.000         0.000         0.000         0.000
  41                          18.982         0.000         0.000         0.000         0.000
  42                          21.551         0.000         0.000         0.000         0.000
  43                           5.077         0.000         0.000         0.000         0.000
  44                         200.393         0.000         0.000         0.000         0.000
  45                          11.558         0.000         0.000         0.000         0.000
  46                          71.531         0.000         0.000         0.000         0.000
  47                          12.255         0.000         0.000         0.000         0.000
  48                          32.212         0.000         0.000         0.000         0.000
  55                          24.436         0.000         0.000         0.000         0.000
  56                          78.112         0.000         0.000         0.000         0.000
  57                          39.940         0.000         0.000         0.000         0.000
  59                           9.854         0.000         0.000         0.000         0.000
  60                          27.922         0.000         0.000         0.000         0.000
  61                         108.254         0.000         0.000         0.000         0.000
  62                         112.837         0.000         0.000         0.000         0.000
  64                          13.026         0.000         0.000         0.000         0.000
  ------------------------------------------------------------------------------------------
  System                    3127.802         0.000         0.000         0.000         0.000
  
  
  ******************
  Node Depth Summary
  ******************
  
  ---------------------------------------------------------------------------------
                                 Average  Maximum  Maximum  Time of Max    Reported
                                   Depth    Depth      HGL   Occurrence   Max Depth
  Node                 Type       Meters   Meters   Meters  days hr:min      Meters
  ---------------------------------------------------------------------------------
  WS01000070           JUNCTION     0.00     0.00     0.00     0  00:00        0.00
  WS01000323           JUNCTION     0.00     0.00     0.00     0  00:00        0.00
  WS01000533           JUNCTION     0.00     0.00     6.86     0  00:00        0.00
  WS01005172           JUNCTION     0.00     0.00     0.00     0  00:00        0.00
  WS01005181           JUNCTION     0.00     0.00     0.00     0  00:00        0.00
  WS01009841           JUNCTION     0.00     0.00     0.00     0  00:00        0.00
  WS02000078           JUNCTION     0.00     0.00     0.00     0  00:00        0.00
  WS02000112           JUNCTION     0.00     0.00     0.00     0  00:00        0.00
  WS02000136           JUNCTION     0.00     0.00     0.00     0  00:00        0.00
  WS02001211           JUNCTION     0.16     0.43     5.27     0  07:17        0.43
  WS02001212           JUNCTION     0.14     0.36     5.16     0  07:15        0.36
  WS02001213           JUNCTION     0.22     0.45     5.15     0  07:15        0.45
  WS02003059           JUNCTION     0.24     0.40     5.05     0  07:13        0.40
  WS02003060           JUNCTION     0.32     0.45     5.00     0  02:33        0.45
  WS02003066           JUNCTION     0.16     0.30     5.60     0  02:31        0.30
  WS02003067           JUNCTION     0.27     0.50     5.82     0  02:31        0.48
  WS02003071           JUNCTION     0.37     0.50     4.90     0  02:33        0.50
  WS02003072           JUNCTION     0.29     0.42     4.79     0  02:34        0.42
  WS02003073           JUNCTION     0.36     0.54     4.78     0  02:37        0.52
  WS02003076           JUNCTION     0.32     0.50     4.73     0  02:35        0.48
  WS02003077           JUNCTION     0.06     0.11     5.12     0  02:02        0.11
  WS02003078           JUNCTION     0.04     0.07     6.97     0  02:02        0.07
  WS02003079           JUNCTION     0.10     0.23     7.14     0  02:02        0.23
  WS02003093           JUNCTION     0.02     0.07     7.41     0  01:58        0.07
  WS02003094           JUNCTION     0.10     0.19     7.41     0  01:59        0.19
  WS02003098           JUNCTION     0.06     0.12     7.29     0  02:00        0.12
  WS02003099           JUNCTION     0.12     0.25     7.29     0  02:00        0.25
  WS02003102           JUNCTION     0.10     0.24     7.27     0  02:00        0.24
  WS02003103           JUNCTION     0.12     0.26     7.23     0  02:01        0.26
  WS02003104           JUNCTION     0.12     0.25     7.21     0  02:01        0.25
  WS02003106           JUNCTION     0.12     0.25     7.18     0  02:01        0.25
  WS02004050           JUNCTION     0.23     0.32     4.54     0  02:38        0.32
  WS02004053           JUNCTION     0.00     0.00     0.00     0  00:00        0.00
  WS02004136           JUNCTION     0.05     0.21     6.94     0  00:01        0.18
  WS02004139           JUNCTION     0.11     0.37     5.33     0  00:10        0.37
  WS02004401           JUNCTION     0.26     0.48     6.48     0  03:27        0.48
  WS02004402           JUNCTION     0.27     0.49     6.45     0  03:27        0.49
  WS02004403           JUNCTION     0.25     0.49     6.42     0  03:28        0.49
  WS02004404           JUNCTION     0.34     0.57     6.42     0  03:28        0.57
  WS02004405           JUNCTION     0.34     0.57     6.41     0  03:28        0.57
  WS02004406           JUNCTION     0.32     0.54     6.37     0  03:28        0.54
  WS02004407           JUNCTION     0.31     0.51     6.31     0  03:29        0.51
  WS02004409           JUNCTION     0.30     0.50     6.27     0  02:30        0.50
  WS02004410           JUNCTION     0.29     0.48     6.20     0  02:30        0.48
  WS02004411           JUNCTION     0.27     0.44     6.12     0  02:31        0.44
  WS02004412           JUNCTION     0.23     0.39     6.03     0  02:31        0.39
  WS02004413           JUNCTION     0.24     0.42     5.89     0  02:31        0.41
  WS02004997           JUNCTION     5.70     6.90     8.51     0  01:16        6.78
  WS02005192           JUNCTION     0.10     0.28     8.15     0  05:06        0.28
  WS02005193           JUNCTION     0.11     0.33     8.15     0  05:06        0.32
  WS02005196           JUNCTION     0.11     0.30     8.15     0  05:06        0.30
  WS02006109           JUNCTION     0.31     0.56     7.18     0  05:05        0.56
  WS02006110           JUNCTION     0.29     0.51     7.11     0  05:05        0.50
  WS02006111           JUNCTION     0.15     0.28     6.86     0  03:25        0.28
  WS02006112           JUNCTION     0.29     0.51     6.63     0  03:26        0.51
  WS02006113           JUNCTION     0.24     0.42     7.01     0  05:06        0.42
  WS02006115           JUNCTION     0.25     0.46     6.56     0  03:26        0.46
  WS02006116           JUNCTION     0.27     0.49     6.53     0  03:27        0.49
  WS02006183           JUNCTION     0.00     0.00     0.00     0  00:00        0.00
  WS02006228           JUNCTION     0.30     0.58     7.23     0  05:04        0.58
  WS02006229           JUNCTION     0.27     0.55     7.24     0  05:04        0.55
  WS02006230           JUNCTION     0.25     0.56     7.31     0  05:04        0.54
  WS02006231           JUNCTION     0.18     0.46     7.36     0  05:04        0.45
  WS02006232           JUNCTION     0.18     0.43     7.46     0  05:04        0.43
  WS02006234           JUNCTION     0.17     0.43     7.59     0  05:04        0.43
  WS02006235           JUNCTION     0.21     0.51     7.68     0  05:03        0.50
  WS02006238           JUNCTION     0.21     0.52     7.70     0  05:03        0.49
  WS02006239           JUNCTION     0.22     0.51     7.72     0  05:04        0.50
  WS02006242           JUNCTION     0.22     0.49     7.79     0  05:05        0.49
  WS02006240           JUNCTION     0.17     0.45     7.74     0  05:04        0.43
  WS02006243           JUNCTION     0.16     0.41     7.83     0  05:07        0.40
  WS02006245           JUNCTION     0.17     0.41     7.90     0  05:07        0.41
  WS02006247           JUNCTION     0.18     0.44     7.95     0  05:07        0.44
  WS02006248           JUNCTION     0.14     0.40     7.99     0  05:06        0.40
  WS02006249           JUNCTION     0.16     0.43     8.03     0  05:06        0.42
  WS02006251           JUNCTION     0.15     0.44     8.11     0  05:06        0.43
  WS02006253           JUNCTION     0.10     0.35     8.15     0  05:06        0.34
  WS02618401           JUNCTION     0.00     0.00     0.00     0  00:00        0.00
  WS8802               JUNCTION     0.00     0.00     4.38     0  00:00        0.00
  WSA1649              JUNCTION     0.00     0.00     0.00     0  00:00        0.00
  WSF200               JUNCTION     0.16     0.30     5.40     0  03:30        0.27
  XR-Inflow            JUNCTION     5.52     6.55     8.36     0  01:16        6.55
  WS02004114           JUNCTION     5.69     7.06     8.66     0  01:16        6.80
  outfall-2            OUTFALL      0.00     0.00     7.00     0  00:00        0.00
  outfall-5            OUTFALL      0.00     0.00     7.67     0  00:00        0.00
  outfall-14           OUTFALL      0.00     0.00     7.66     0  00:00        0.00
  outfall-16           OUTFALL      0.00     0.00     8.39     0  00:00        0.00
  12                   OUTFALL      0.23     0.32     0.32     0  02:39        0.32
  XR-storage           STORAGE      6.64     8.22     8.72     0  01:16        7.90
  CC-storage           STORAGE      3.19     5.63     8.81     0  01:32        5.63
  JK-storage           STORAGE      2.52     4.80     7.80     0  01:37        4.80
  
  
  *******************
  Node Inflow Summary
  *******************
  
  -------------------------------------------------------------------------------------------------
                                  Maximum  Maximum                  Lateral       Total        Flow
                                  Lateral    Total  Time of Max      Inflow      Inflow     Balance
                                   Inflow   Inflow   Occurrence      Volume      Volume       Error
  Node                 Type           MLD      MLD  days hr:min    10^6 ltr    10^6 ltr     Percent
  -------------------------------------------------------------------------------------------------
  WS01000070           JUNCTION      0.00     0.00     0  00:00           0           0       0.000 ltr
  WS01000323           JUNCTION      0.00     0.00     0  00:00           0           0       0.000 ltr
  WS01000533           JUNCTION      0.00     0.00     0  00:00           0           0       0.000 ltr
  WS01005172           JUNCTION      0.00     0.00     0  00:00           0           0       0.000 ltr
  WS01005181           JUNCTION      0.00     0.00     0  00:00           0           0       0.000 ltr
  WS01009841           JUNCTION      0.00     0.00     0  00:00           0           0       0.000 ltr
  WS02000078           JUNCTION      0.00     0.00     0  00:00           0           0       0.000 ltr
  WS02000112           JUNCTION      0.00     0.00     0  00:00           0           0       0.000 ltr
  WS02000136           JUNCTION      0.00     0.00     0  00:00           0           0       0.000 ltr
  WS02001211           JUNCTION      0.25    36.17     0  00:02      0.0783        2.77       0.906
  WS02001212           JUNCTION      0.21    35.48     0  00:03      0.0675        2.84       0.485
  WS02001213           JUNCTION      0.30    34.07     0  00:12      0.0925        2.94       0.608
  WS02003059           JUNCTION      0.23    37.56     0  00:04      0.0731        2.99       0.707
  WS02003060           JUNCTION      0.16    59.35     0  03:30      0.0459         9.1       0.249
  WS02003066           JUNCTION      0.08    64.88     0  02:31      0.0232        6.06       0.128
  WS02003067           JUNCTION      0.26    51.01     0  02:32      0.0708        6.04       0.038
  WS02003071           JUNCTION      0.35    51.42     0  02:33      0.0985        9.14       0.313
  WS02003072           JUNCTION      0.24    51.87     0  02:34      0.0711        9.18       0.188
  WS02003073           JUNCTION      0.07    59.00     0  02:34      0.0171        9.88       0.169
  WS02003076           JUNCTION      0.72    62.75     0  02:38       0.235        10.1       0.112
  WS02003077           JUNCTION      0.04     9.11     0  02:02      0.0103       0.703       0.050
  WS02003078           JUNCTION      0.03    10.45     0  02:02     0.00734       0.691      -0.193
  WS02003079           JUNCTION      0.04     9.04     0  02:02     0.00982       0.685       0.182
  WS02003093           JUNCTION      0.02     0.07     0  01:46     0.00536     0.00561       0.106
  WS02003094           JUNCTION      4.78     4.80     0  01:59       0.368       0.374       0.105
  WS02003098           JUNCTION      0.02     4.82     0  01:59     0.00514       0.379       0.063
  WS02003099           JUNCTION      0.07     4.89     0  02:00      0.0191       0.397       0.190
  WS02003102           JUNCTION      4.16     8.95     0  01:59       0.258       0.655       0.060
  WS02003103           JUNCTION      0.02     8.95     0  02:00     0.00419       0.658       0.052
  WS02003104           JUNCTION      0.02     8.97     0  02:01     0.00529       0.663       0.041
  WS02003106           JUNCTION      0.05     9.01     0  02:01      0.0127       0.676       0.065
  WS02004050           JUNCTION      0.72    70.66     0  02:35       0.233        10.3       0.381
  WS02004053           JUNCTION      0.00     0.00     0  00:00           0           0       0.000 ltr
  WS02004136           JUNCTION      0.44    32.92     0  00:01       0.132        2.59       0.106
  WS02004139           JUNCTION      0.38    40.00     0  00:01       0.118         2.7       0.618
  WS02004401           JUNCTION      0.05    41.43     0  03:27      0.0175        4.19       0.053
  WS02004402           JUNCTION      0.22    41.42     0  03:27      0.0604        4.25       0.049
  WS02004403           JUNCTION      0.23    41.46     0  03:27      0.0628        4.31       0.031
  WS02004404           JUNCTION      0.24    41.53     0  03:28      0.0657        4.37       0.043
  WS02004405           JUNCTION      2.83    42.12     0  03:28       0.187        4.56       0.063
  WS02004406           JUNCTION      4.99    45.33     0  03:28       0.599        5.16       0.086
  WS02004407           JUNCTION      0.11    45.40     0  03:28      0.0317        5.18       0.076
  WS02004409           JUNCTION      3.46    47.10     0  03:29       0.349        5.53       0.061
  WS02004410           JUNCTION      0.15    47.28     0  03:29      0.0413        5.57       0.066
  WS02004411           JUNCTION      0.25    47.56     0  03:29       0.068        5.63       0.059
  WS02004412           JUNCTION      4.80    50.12     0  02:31       0.315        5.94       0.043
  WS02004413           JUNCTION      0.11    50.40     0  02:31       0.032        5.97       0.034
  WS02004997           JUNCTION      0.42    30.39     0  07:39       0.134        2.29       1.059
  WS02005192           JUNCTION      4.87     4.87     0  01:56       0.321       0.323       0.030
  WS02005193           JUNCTION      0.09     5.75     0  05:07      0.0272       0.403       0.094
  WS02005196           JUNCTION      0.12     4.99     0  01:56      0.0349       0.363       0.091
  WS02006109           JUNCTION      0.08    40.28     0  05:05      0.0254        3.62       0.085
  WS02006110           JUNCTION      0.08    40.06     0  05:05      0.0249        3.64       0.086
  WS02006111           JUNCTION      0.24    41.29     0  03:25      0.0657        4.04       0.030
  WS02006112           JUNCTION      0.18    41.45     0  03:25      0.0496        4.09       0.063
  WS02006113           JUNCTION      5.00    41.05     0  03:25       0.343        3.98       0.055
  WS02006115           JUNCTION      0.08    41.47     0  03:26      0.0253        4.11       0.058
  WS02006116           JUNCTION      0.24    41.51     0  03:26      0.0648        4.18       0.060
  WS02006183           JUNCTION      0.00     0.00     0  00:00           0           0       0.000 ltr
  WS02006228           JUNCTION      7.27    40.57     0  05:04       0.811        3.59       0.058
  WS02006229           JUNCTION      0.13    39.06     0  05:04      0.0368        2.78       0.046
  WS02006230           JUNCTION      0.07    39.44     0  05:04       0.022        2.75       0.049
  WS02006231           JUNCTION      0.13    39.88     0  05:04      0.0376        2.73       0.024
  WS02006232           JUNCTION      3.47    40.36     0  05:04        0.23        2.69       0.027
  WS02006234           JUNCTION      0.14    40.65     0  05:03      0.0394        2.46       0.053
  WS02006235           JUNCTION      0.14    40.93     0  05:03      0.0407        2.42       0.018
  WS02006238           JUNCTION      0.15    41.44     0  05:03      0.0428        2.39       0.031
  WS02006239           JUNCTION      0.11    27.68     0  05:08      0.0322        1.84       0.073
  WS02006242           JUNCTION      0.08    27.77     0  05:07      0.0242        1.78       0.103
  WS02006240           JUNCTION      0.06    27.62     0  05:07      0.0191         1.8       0.058
  WS02006243           JUNCTION      0.17    28.17     0  05:07      0.0487        1.76       0.040
  WS02006245           JUNCTION      0.07    27.93     0  05:07      0.0215        1.71       0.040
  WS02006247           JUNCTION      2.79    27.77     0  05:06       0.341        1.69       0.046
  WS02006248           JUNCTION      0.12    27.21     0  05:06      0.0353        1.35       0.026
  WS02006249           JUNCTION      0.19    27.59     0  05:06      0.0516        1.32       0.068
  WS02006251           JUNCTION      1.41    27.94     0  05:06       0.119        1.26       0.020
  WS02006253           JUNCTION      0.11    28.65     0  05:06      0.0319        1.16      -0.007
  WS02618401           JUNCTION      0.00     0.00     0  00:00           0           0       0.000 ltr
  WS8802               JUNCTION      0.00     0.00     0  00:00           0           0       0.000 ltr
  WSA1649              JUNCTION      0.00     0.00     0  00:00           0           0       0.000 ltr
  WSF200               JUNCTION      0.14    59.61     0  02:31      0.0397        6.09      -0.023
  XR-Inflow            JUNCTION    117.77   118.72     0  02:16        18.3        18.5       0.048
  WS02004114           JUNCTION      0.57    31.80     0  07:40       0.173        2.21       0.649
  outfall-2            OUTFALL       0.00     0.00     0  00:00           0           0       0.000 ltr
  outfall-5            OUTFALL       0.00     0.00     0  00:00           0           0       0.000 ltr
  outfall-14           OUTFALL       0.00     0.00     0  00:00           0           0       0.000 ltr
  outfall-16           OUTFALL       0.00     0.00     0  00:00           0           0       0.000 ltr
  12                   OUTFALL       0.00    60.62     0  02:39           0        10.3       0.000
  XR-storage           STORAGE       0.00    32.41     0  07:40           0        2.07     -16.183
  CC-storage           STORAGE      15.78    15.78     0  02:00        1.42        1.42      -3.446
  JK-storage           STORAGE      15.65    15.65     0  02:00        1.28        1.28      -3.086
  
  
  **********************
  Node Surcharge Summary
  **********************
  
  Surcharging occurs when water rises above the top of the highest conduit.
  ---------------------------------------------------------------------
                                               Max. Height   Min. Depth
                                   Hours       Above Crown    Below Rim
  Node                 Type      Surcharged         Meters       Meters
  ---------------------------------------------------------------------
  WS01000070           JUNCTION        7.83          0.000        0.000
  WS01000323           JUNCTION        7.83          0.000        0.000
  WS01000533           JUNCTION        7.83          0.000        2.147
  WS01005172           JUNCTION        7.83          0.000        0.000
  WS01005181           JUNCTION        7.83          0.000        0.000
  WS01009841           JUNCTION        7.83          0.000        0.000
  WS02000078           JUNCTION        7.83          0.000        0.000
  WS02000112           JUNCTION        7.83          0.000        0.000
  WS02000136           JUNCTION        7.83          0.000        0.000
  WS02004053           JUNCTION        7.83          0.000        0.000
  WS02004997           JUNCTION        6.47          6.000        0.000
  WS02006183           JUNCTION        7.83          0.000        0.000
  WS02618401           JUNCTION        7.83          0.000        0.000
  WS8802               JUNCTION        7.83          0.000        4.942
  WSA1649              JUNCTION        7.83          0.000        0.000
  XR-Inflow            JUNCTION        6.43          5.650        0.000
  WS02004114           JUNCTION        6.47          6.160        0.355
  XR-storage           STORAGE         6.72          7.320        0.000
  
  
  *********************
  Node Flooding Summary
  *********************
  
  Flooding refers to all water that overflows a node, whether it ponds or not.
  --------------------------------------------------------------------------
                                                             Total   Maximum
                                 Maximum   Time of Max       Flood    Ponded
                        Hours       Rate    Occurrence      Volume     Depth
  Node                 Flooded       MLD   days hr:min    10^6 ltr    Meters
  --------------------------------------------------------------------------
  WS02004997              0.01      7.93      0  01:16       0.001     0.000
  XR-Inflow               5.88    118.72      0  02:16      16.464     0.000
  XR-storage              0.01     21.61      0  01:16       0.002     0.500
  CC-storage              1.86     15.78      0  02:00       0.718     0.000
  JK-storage              1.87     15.65      0  02:00       0.790     0.000
  
  
  **********************
  Storage Volume Summary
  **********************
  
  --------------------------------------------------------------------------------------------------
                         Average     Avg  Evap Exfil       Maximum     Max    Time of Max    Maximum
                          Volume    Pcnt  Pcnt  Pcnt        Volume    Pcnt     Occurrence    Outflow
  Storage Unit           1000 m3    Full  Loss  Loss       1000 m3    Full    days hr:min        MLD
  --------------------------------------------------------------------------------------------------
  XR-storage               0.053      85     0     0         0.063     100       0  01:16      32.48
  CC-storage               0.090      57     0     0         0.159     100       0  01:32      28.56
  JK-storage               0.071      52     0     0         0.136     100       0  01:37      24.04
  
  
  ***********************
  Outfall Loading Summary
  ***********************
  
  ---------------------------------------------------------------------------------------------------------------------------------
                         Flow       Avg       Max       Total         Total         Total         Total         Total         Total
                         Freq      Flow      Flow      Volume           COD         NH3-N            TN            TP            SS
  Outfall Node           Pcnt       MLD       MLD    10^6 ltr            kg            kg            kg            kg            kg
  ---------------------------------------------------------------------------------------------------------------------------------
  outfall-2              0.00      0.00      0.00       0.000         0.000         0.000         0.000         0.000         0.000
  outfall-5              0.00      0.00      0.00       0.000         0.000         0.000         0.000         0.000         0.000
  outfall-14             0.00      0.00      0.00       0.000         0.000         0.000         0.000         0.000         0.000
  outfall-16             0.00      0.00      0.00       0.000         0.000         0.000         0.000         0.000         0.000
  12                    99.99     32.78     60.62      10.283      1438.578         0.000         0.000         0.000         0.000
  ---------------------------------------------------------------------------------------------------------------------------------
  System                20.00     32.78     60.62      10.283      1438.578         0.000         0.000         0.000         0.000
  
  
  ********************
  Link Flow Summary
  ********************
  
  -----------------------------------------------------------------------------
                                 Maximum  Time of Max   Maximum    Max/    Max/
                                  |Flow|   Occurrence   |Veloc|    Full    Full
  Link                 Type          MLD  days hr:min     m/sec    Flow   Depth
  -----------------------------------------------------------------------------
  WSL49                CONDUIT     62.03     0  02:38      1.72    0.77    0.43
  WSL1465              CONDUIT     35.99     0  00:05      1.99    0.33    0.41
  WSL1472              CONDUIT     51.64     0  02:34      1.51    0.59    0.39
  WSL1475              CONDUIT     69.95     0  02:35      2.38    0.75    0.29
  WSL1476              CONDUIT      9.09     0  02:02      0.70    0.04    0.39
  WSL1477              CONDUIT     10.43     0  02:02      2.19    0.41    0.25
  WSL1490              CONDUIT     35.27     0  00:03      1.60    0.57    0.40
  WSL1491              CONDUIT     33.77     0  00:12      1.84    0.20    0.41
  WSL1492              CONDUIT     37.33     0  00:04      1.70    0.58    0.43
  WSL1507              CONDUIT      0.06     0  02:18      0.13    0.00    0.16
  WSL1508              CONDUIT      4.80     0  01:59      0.80    0.14    0.20
  WSL1512              CONDUIT      4.81     0  02:00      0.55    0.03    0.19
  WSL1513              CONDUIT      4.88     0  02:01      0.44    0.29    0.30
  WSL1515              CONDUIT     64.81     0  02:31      2.44    0.63    0.32
  WSL1516              CONDUIT      9.08     0  02:02      3.71    0.03    0.16
  WSL1518              CONDUIT      8.94     0  02:00      0.78    0.18    0.31
  WSL1519              CONDUIT      8.96     0  02:01      0.77    0.22    0.31
  WSL1521              CONDUIT      9.00     0  02:02      0.84    0.26    0.30
  WSL1543              CONDUIT      8.95     0  02:01      0.75    0.28    0.32
  WSL1961              CONDUIT     39.61     0  00:01      3.71    0.08    0.27
  WSL1964              CONDUIT     35.92     0  00:02      1.79    0.20    0.33
  WSL2010              CONDUIT     41.28     0  03:27      1.32    0.53    0.49
  WSL2011              CONDUIT     41.33     0  03:28      1.19    0.27    0.53
  WSL2012              CONDUIT     41.45     0  03:28      1.07    0.63    0.57
  WSL2013              CONDUIT     42.05     0  03:28      1.10    1.04    0.56
  WSL2014              CONDUIT     45.30     0  03:28      1.24    0.72    0.53
  WSL2015              CONDUIT     45.39     0  03:29      1.32    0.61    0.50
  WSL2016              CONDUIT     47.16     0  03:29      1.45    0.54    0.49
  WSL2017              CONDUIT     47.36     0  03:29      1.57    0.58    0.46
  WSL2018              CONDUIT     50.30     0  02:31      2.00    0.30    0.40
  WSL2019              CONDUIT     50.78     0  02:32      1.84    0.30    0.46
  WSL2028              CONDUIT     41.24     0  03:27      1.31    0.44    0.49
  WSL2029              CONDUIT     47.51     0  03:30      1.82    0.60    0.42
  WSL2038              CONDUIT      4.87     0  01:56      0.73    0.24    0.49
  WSL2039              CONDUIT      8.18     0  05:07      1.09    0.42    0.57
  WSL2041              CONDUIT      5.67     0  05:07      0.83    0.28    0.53
  WSL2294              CONDUIT     39.99     0  05:05      1.30    1.34    0.67
  WSL2295              CONDUIT     40.05     0  05:05      1.54    1.80    0.58
  WSL2296              CONDUIT     41.30     0  03:25      1.98    0.23    0.49
  WSL2297              CONDUIT     41.39     0  03:26      1.29    0.79    0.49
  WSL2298              CONDUIT     41.09     0  03:25      2.27    1.89    0.44
  WSL2301              CONDUIT     41.32     0  03:26      1.33    0.38    0.48
  WSL2302              CONDUIT     41.38     0  03:27      1.30    0.51    0.49
  WSL2441              CONDUIT     40.21     0  05:05      1.22    1.03    0.71
  WSL2442              CONDUIT     38.95     0  05:04      1.38    1.00    0.79
  WSL2443              CONDUIT     39.38     0  05:04      1.53    0.61    0.72
  WSL2444              CONDUIT     39.78     0  05:04      1.82    0.63    0.63
  WSL2446              CONDUIT     40.16     0  05:04      1.89    0.69    0.61
  WSL2447              CONDUIT     40.54     0  05:03      1.77    2.09    0.67
  WSL2448              CONDUIT     40.82     0  05:03      1.57    1.15    0.73
  WSL2449              CONDUIT     27.60     0  05:08      1.23    0.96    0.73
  WSL2450              CONDUIT     27.59     0  05:08      1.25    0.57    0.67
  WSL2451              CONDUIT     27.56     0  05:07      1.22    1.80    0.66
  WSL2452              CONDUIT     27.70     0  05:07      1.24    0.53    0.64
  WSL2454              CONDUIT     28.04     0  05:07      1.39    0.65    0.58
  WSL2478              CONDUIT     27.86     0  05:07      1.32    0.98    0.61
  WSL2479              CONDUIT     26.99     0  05:06      1.29    0.51    0.60
  WSL2480              CONDUIT     27.11     0  05:06      1.32    1.25    0.59
  WSL2482              CONDUIT     27.45     0  05:06      1.26    0.71    0.62
  WSL2484              CONDUIT     27.80     0  05:06      1.51    0.39    0.56
  WSL2493              CONDUIT     38.64     0  05:04      1.18    0.65    0.71
  WSL2867              CONDUIT     59.48     0  02:31      3.39    0.12    0.24
  WSL2868              CONDUIT     59.21     0  03:30      2.50    0.11    0.30
  WSL348               CONDUIT     30.00     0  07:39      1.87    0.27    1.00
  WSL175               CONDUIT     31.33     0  07:40      2.19    1.06    1.00
  WSL1467              CONDUIT     51.11     0  02:33      1.55    0.27    0.40
  WSL1473              CONDUIT     52.87     0  02:34      1.62    0.22    0.39
  XRpipe               CONDUIT     32.41     0  07:40      8.85    0.08    1.00
  8                    CONDUIT      0.00     0  00:00      0.00    0.00    0.00
  19                   CONDUIT      0.00     0  00:00      0.00    0.00    0.00
  17                   CONDUIT      0.00     0  00:00      0.00    0.00    0.00
  4                    CONDUIT      0.00     0  00:00      0.00    0.00    0.00
  2                    CONDUIT     60.62     0  02:39      3.27    0.22    0.32
  XR-Pump-1            PUMP         8.12     0  00:01              1.00
  XR-Pump-3            PUMP         8.12     0  00:01              1.00
  XR-Pump-2            PUMP         8.12     0  00:01              1.00
  XR-Pump-4            PUMP         8.12     0  00:01              1.00
  CC-Pump-1            PUMP        17.28     0  05:00              1.00
  CC-Pump-2            PUMP        11.34     0  05:06              0.66
  JK-Pump-1            PUMP        17.28     0  05:00              1.00
  JK-Pump-2            PUMP         8.95     0  05:55              0.52
  
  
  ***************************
  Flow Classification Summary
  ***************************
  
  -------------------------------------------------------------------------------------
                      Adjusted    ---------- Fraction of Time in Flow Class ---------- 
                       /Actual         Up    Down  Sub   Sup   Up    Down  Norm  Inlet 
  Conduit               Length    Dry  Dry   Dry   Crit  Crit  Crit  Crit  Ltd   Ctrl  
  -------------------------------------------------------------------------------------
  WSL49                   1.00   0.00  0.00  0.00  1.00  0.00  0.00  0.00  0.00  0.00
  WSL1465                 1.00   0.00  0.00  0.00  1.00  0.00  0.00  0.00  0.06  0.00
  WSL1472                 1.00   0.00  0.00  0.00  1.00  0.00  0.00  0.00  0.00  0.00
  WSL1475                 1.00   0.00  0.00  0.00  0.02  0.98  0.00  0.00  0.00  0.00
  WSL1476                 1.00   0.00  0.00  0.00  1.00  0.00  0.00  0.00  1.00  0.00
  WSL1477                 1.00   0.00  0.00  0.00  0.00  1.00  0.00  0.00  0.26  0.00
  WSL1490                 1.00   0.00  0.00  0.00  1.00  0.00  0.00  0.00  0.03  0.00
  WSL1491                 1.00   0.00  0.00  0.00  1.00  0.00  0.00  0.00  0.47  0.00
  WSL1492                 1.00   0.00  0.00  0.00  1.00  0.00  0.00  0.00  0.06  0.00
  WSL1507                 1.00   0.00  0.00  0.00  1.00  0.00  0.00  0.00  0.77  0.00
  WSL1508                 1.00   0.00  0.00  0.00  1.00  0.00  0.00  0.00  0.00  0.00
  WSL1512                 1.00   0.00  0.00  0.00  1.00  0.00  0.00  0.00  1.00  0.00
  WSL1513                 1.00   0.00  0.00  0.00  1.00  0.00  0.00  0.00  0.00  0.00
  WSL1515                 1.00   0.00  0.00  0.00  0.09  0.91  0.00  0.00  0.03  0.00
  WSL1516                 1.00   0.00  0.00  0.00  0.00  1.00  0.00  0.00  1.00  0.00
  WSL1518                 1.00   0.00  0.00  0.00  1.00  0.00  0.00  0.00  0.75  0.00
  WSL1519                 1.00   0.00  0.00  0.00  1.00  0.00  0.00  0.00  0.47  0.00
  WSL1521                 1.00   0.00  0.00  0.00  1.00  0.00  0.00  0.00  0.01  0.00
  WSL1543                 1.00   0.00  0.00  0.00  1.00  0.00  0.00  0.00  0.01  0.00
  WSL1961                 1.00   0.00  0.00  0.00  0.80  0.20  0.00  0.00  1.00  0.00
  WSL1964                 1.00   0.00  0.00  0.00  1.00  0.00  0.00  0.00  0.75  0.00
  WSL2010                 1.00   0.00  0.00  0.00  1.00  0.00  0.00  0.00  0.00  0.00
  WSL2011                 1.00   0.00  0.00  0.00  1.00  0.00  0.00  0.00  0.16  0.00
  WSL2012                 1.00   0.00  0.00  0.00  1.00  0.00  0.00  0.00  0.00  0.00
  WSL2013                 1.00   0.00  0.00  0.00  1.00  0.00  0.00  0.00  0.00  0.00
  WSL2014                 1.00   0.00  0.00  0.00  1.00  0.00  0.00  0.00  0.00  0.00
  WSL2015                 1.00   0.00  0.00  0.00  1.00  0.00  0.00  0.00  0.01  0.00
  WSL2016                 1.00   0.00  0.00  0.00  1.00  0.00  0.00  0.00  0.08  0.00
  WSL2017                 1.00   0.00  0.00  0.00  1.00  0.00  0.00  0.00  0.02  0.00
  WSL2018                 1.00   0.00  0.00  0.00  0.01  0.99  0.00  0.00  0.34  0.00
  WSL2019                 1.00   0.00  0.00  0.00  0.28  0.72  0.00  0.00  0.05  0.00
  WSL2028                 1.00   0.00  0.00  0.00  1.00  0.00  0.00  0.00  0.04  0.00
  WSL2029                 1.00   0.00  0.00  0.00  0.47  0.53  0.00  0.00  0.00  0.00
  WSL2038                 1.00   0.00  0.00  0.00  1.00  0.00  0.00  0.00  0.07  0.00
  WSL2039                 1.00   0.00  0.00  0.00  0.80  0.20  0.00  0.00  0.01  0.00
  WSL2041                 1.00   0.00  0.00  0.00  1.00  0.00  0.00  0.00  0.40  0.00
  WSL2294                 1.00   0.00  0.00  0.00  1.00  0.00  0.00  0.00  0.00  0.00
  WSL2295                 1.00   0.00  0.00  0.00  1.00  0.00  0.00  0.00  0.00  0.00
  WSL2296                 1.00   0.00  0.00  0.00  0.22  0.78  0.00  0.00  0.84  0.00
  WSL2297                 1.00   0.00  0.00  0.00  1.00  0.00  0.00  0.00  0.00  0.00
  WSL2298                 1.00   0.00  0.00  0.00  0.04  0.96  0.00  0.00  0.00  0.00
  WSL2301                 1.00   0.00  0.00  0.00  1.00  0.00  0.00  0.00  0.07  0.00
  WSL2302                 1.00   0.00  0.00  0.00  1.00  0.00  0.00  0.00  0.04  0.00
  WSL2441                 1.00   0.00  0.00  0.00  1.00  0.00  0.00  0.00  0.01  0.00
  WSL2442                 1.00   0.00  0.00  0.00  1.00  0.00  0.00  0.00  0.21  0.00
  WSL2443                 1.00   0.00  0.00  0.00  1.00  0.00  0.00  0.00  0.63  0.00
  WSL2444                 1.00   0.00  0.00  0.00  0.05  0.95  0.00  0.00  0.60  0.00
  WSL2446                 1.00   0.00  0.00  0.00  0.18  0.82  0.00  0.00  0.41  0.00
  WSL2447                 1.00   0.00  0.00  0.00  1.00  0.00  0.00  0.00  0.00  0.00
  WSL2448                 1.00   0.00  0.00  0.00  1.00  0.00  0.00  0.00  0.02  0.00
  WSL2449                 1.00   0.00  0.00  0.00  1.00  0.00  0.00  0.00  0.04  0.00
  WSL2450                 1.00   0.00  0.00  0.00  1.00  0.00  0.00  0.00  0.55  0.00
  WSL2451                 1.00   0.00  0.00  0.00  1.00  0.00  0.00  0.00  0.00  0.00
  WSL2452                 1.00   0.00  0.00  0.00  1.00  0.00  0.00  0.00  0.77  0.00
  WSL2454                 1.00   0.00  0.00  0.00  1.00  0.00  0.00  0.00  0.05  0.00
  WSL2478                 1.00   0.00  0.00  0.00  1.00  0.00  0.00  0.00  0.00  0.00
  WSL2479                 1.00   0.00  0.00  0.00  1.00  0.00  0.00  0.00  0.61  0.00
  WSL2480                 1.00   0.00  0.00  0.00  1.00  0.00  0.00  0.00  0.00  0.00
  WSL2482                 1.00   0.00  0.00  0.00  1.00  0.00  0.00  0.00  0.66  0.00
  WSL2484                 1.00   0.00  0.00  0.00  0.99  0.01  0.00  0.00  0.78  0.00
  WSL2493                 1.00   0.00  0.00  0.00  1.00  0.00  0.00  0.00  0.02  0.00
  WSL2867                 1.00   0.00  0.00  0.00  0.00  1.00  0.00  0.00  0.29  0.00
  WSL2868                 1.00   0.00  0.00  0.00  0.19  0.81  0.00  0.00  0.79  0.00
  WSL348                  1.00   0.00  0.00  0.00  0.99  0.01  0.00  0.00  0.00  0.00
  WSL175                  1.00   0.00  0.00  0.00  0.88  0.12  0.00  0.00  0.00  0.00
  WSL1467                 1.00   0.00  0.00  0.00  1.00  0.00  0.00  0.00  0.29  0.00
  WSL1473                 1.00   0.00  0.00  0.00  1.00  0.00  0.00  0.00  0.09  0.00
  XRpipe                  1.00   0.00  0.00  0.00  0.88  0.12  0.00  0.00  0.01  0.00
  8                       1.00   1.00  0.00  0.00  0.00  0.00  0.00  0.00  0.00  0.00
  19                      1.00   1.00  0.00  0.00  0.00  0.00  0.00  0.00  0.00  0.00
  17                      1.00   1.00  0.00  0.00  0.00  0.00  0.00  0.00  0.00  0.00
  4                       1.00   1.00  0.00  0.00  0.00  0.00  0.00  0.00  0.00  0.00
  2                       1.00   0.00  0.00  0.00  0.00  1.00  0.00  0.00  0.36  0.00
  
  
  *************************
  Conduit Surcharge Summary
  *************************
  
  ----------------------------------------------------------------------------
                                                           Hours        Hours 
                         --------- Hours Full --------   Above Full   Capacity
  Conduit                Both Ends  Upstream  Dnstream   Normal Flow   Limited
  ----------------------------------------------------------------------------
  WSL2013                     0.01      0.01      0.01      0.07         0.01
  WSL2294                     0.01      0.01      0.01      0.54         0.01
  WSL2295                     0.01      0.01      0.01      0.90         0.01
  WSL2298                     0.01      0.01      0.01      1.39         0.01
  WSL2441                     0.01      0.01      0.01      0.04         0.01
  WSL2447                     0.01      0.01      0.01      0.72         0.01
  WSL2448                     0.01      0.01      0.01      0.03         0.01
  WSL2451                     0.01      0.01      0.01      0.59         0.01
  WSL2480                     0.01      0.01      0.01      0.06         0.01
  WSL348                      6.43      6.43      6.47      0.01         0.01
  WSL175                      6.47      6.47      6.47      0.17         0.13
  XRpipe                      6.47      6.47      6.72      0.01         0.01
  
  
  ***************
  Pumping Summary
  ***************
  
  ---------------------------------------------------------------------------------------------------------
                                                  Min       Avg       Max     Total     Power    % Time Off
                        Percent   Number of      Flow      Flow      Flow    Volume     Usage    Pump Curve
  Pump                 Utilized   Start-Ups       MLD       MLD       MLD  10^6 ltr     Kw-hr    Low   High
  ---------------------------------------------------------------------------------------------------------
  XR-Pump-1               25.53           2      0.00      7.40      8.12     0.614      7.89    0.0    7.9
  XR-Pump-3               25.53           2      0.00      7.40      8.12     0.614      7.89    0.0    7.9
  XR-Pump-2               25.53           2      0.00      7.40      8.12     0.614      7.89    0.0    7.9
  XR-Pump-4               25.53           2      0.00      7.40      8.12     0.614      7.89    0.0    7.9
  CC-Pump-1               34.04           6      0.00      6.50     17.28     0.633      3.13    0.0    0.0
  CC-Pump-2               12.77           3      0.00      2.56     11.34     0.098      1.16    0.0    0.0
  JK-Pump-1               29.78           5      0.00      5.34     17.28     0.445      2.58    0.0    0.0
  JK-Pump-2               12.77           3      0.00      1.68      8.95     0.065      0.76    0.0    0.0
  
  
  ***************************
  Link Pollutant Load Summary
  ***************************
  
  ------------------------------------------------------------------------------------------
                                 COD         NH3-N            TN            TP            SS
  Link                            kg            kg            kg            kg            kg
  ------------------------------------------------------------------------------------------
  WSL49                     1365.439         0.000         0.000         0.000         0.000
  WSL1465                    210.170         0.000         0.000         0.000         0.000
  WSL1472                   1231.577         0.000         0.000         0.000         0.000
  WSL1475                   1403.260         0.000         0.000         0.000         0.000
  WSL1476                    122.854         0.000         0.000         0.000         0.000
  WSL1477                    119.561         0.000         0.000         0.000         0.000
  WSL1490                    166.780         0.000         0.000         0.000         0.000
  WSL1491                    187.385         0.000         0.000         0.000         0.000
  WSL1492                    194.187         0.000         0.000         0.000         0.000
  WSL1507                      1.074         0.000         0.000         0.000         0.000
  WSL1508                     74.204         0.000         0.000         0.000         0.000
  WSL1512                     75.056         0.000         0.000         0.000         0.000
  WSL1513                     78.118         0.000         0.000         0.000         0.000
  WSL1515                   1003.927         0.000         0.000         0.000         0.000
  WSL1516                    120.873         0.000         0.000         0.000         0.000
  WSL1518                    114.393         0.000         0.000         0.000         0.000
  WSL1519                    115.906         0.000         0.000         0.000         0.000
  WSL1521                    117.974         0.000         0.000         0.000         0.000
  WSL1543                    115.052         0.000         0.000         0.000         0.000
  WSL1961                    138.240         0.000         0.000         0.000         0.000
  WSL1964                    155.566         0.000         0.000         0.000         0.000
  WSL2010                    604.134         0.000         0.000         0.000         0.000
  WSL2011                    614.413         0.000         0.000         0.000         0.000
  WSL2012                    625.102         0.000         0.000         0.000         0.000
  WSL2013                    653.082         0.000         0.000         0.000         0.000
  WSL2014                    837.629         0.000         0.000         0.000         0.000
  WSL2015                    842.235         0.000         0.000         0.000         0.000
  WSL2016                    925.878         0.000         0.000         0.000         0.000
  WSL2017                    932.257         0.000         0.000         0.000         0.000
  WSL2018                    987.132         0.000         0.000         0.000         0.000
  WSL2019                    992.294         0.000         0.000         0.000         0.000
  WSL2028                    594.291         0.000         0.000         0.000         0.000
  WSL2029                    943.229         0.000         0.000         0.000         0.000
  WSL2038                     45.552         0.000         0.000         0.000         0.000
  WSL2039                     58.748         0.000         0.000         0.000         0.000
  WSL2041                     52.516         0.000         0.000         0.000         0.000
  WSL2294                    547.331         0.000         0.000         0.000         0.000
  WSL2295                    550.876         0.000         0.000         0.000         0.000
  WSL2296                    569.353         0.000         0.000         0.000         0.000
  WSL2297                    577.452         0.000         0.000         0.000         0.000
  WSL2298                    558.451         0.000         0.000         0.000         0.000
  WSL2301                    581.217         0.000         0.000         0.000         0.000
  WSL2302                    591.753         0.000         0.000         0.000         0.000
  WSL2441                    543.538         0.000         0.000         0.000         0.000
  WSL2442                    328.734         0.000         0.000         0.000         0.000
  WSL2443                    325.259         0.000         0.000         0.000         0.000
  WSL2444                    318.984         0.000         0.000         0.000         0.000
  WSL2446                    314.848         0.000         0.000         0.000         0.000
  WSL2447                    308.357         0.000         0.000         0.000         0.000
  WSL2448                    301.472         0.000         0.000         0.000         0.000
  WSL2449                    256.838         0.000         0.000         0.000         0.000
  WSL2450                    251.174         0.000         0.000         0.000         0.000
  WSL2451                    248.011         0.000         0.000         0.000         0.000
  WSL2452                    244.253         0.000         0.000         0.000         0.000
  WSL2454                    236.093         0.000         0.000         0.000         0.000
  WSL2478                    232.502         0.000         0.000         0.000         0.000
  WSL2479                    176.120         0.000         0.000         0.000         0.000
  WSL2480                    170.096         0.000         0.000         0.000         0.000
  WSL2482                    161.932         0.000         0.000         0.000         0.000
  WSL2484                    134.003         0.000         0.000         0.000         0.000
  WSL2493                    334.617         0.000         0.000         0.000         0.000
  WSL2867                   1006.338         0.000         0.000         0.000         0.000
  WSL2868                   1013.822         0.000         0.000         0.000         0.000
  WSL348                     311.571         0.000         0.000         0.000         0.000
  WSL175                     299.613         0.000         0.000         0.000         0.000
  WSL1467                   1218.147         0.000         0.000         0.000         0.000
  WSL1473                   1241.440         0.000         0.000         0.000         0.000
  XRpipe                     285.600         0.000         0.000         0.000         0.000
  8                            0.000         0.000         0.000         0.000         0.000
  19                           0.000         0.000         0.000         0.000         0.000
  17                           0.000         0.000         0.000         0.000         0.000
  4                            0.000         0.000         0.000         0.000         0.000
  2                         1438.578         0.000         0.000         0.000         0.000
  XR-Pump-1                   29.253         0.000         0.000         0.000         0.000
  XR-Pump-3                   29.253         0.000         0.000         0.000         0.000
  XR-Pump-2                   29.253         0.000         0.000         0.000         0.000
  XR-Pump-4                   29.253         0.000         0.000         0.000         0.000
  CC-Pump-1                   67.736         0.000         0.000         0.000         0.000
  CC-Pump-2                    5.329         0.000         0.000         0.000         0.000
  JK-Pump-1                   36.101         0.000         0.000         0.000         0.000
  JK-Pump-2                    2.432         0.000         0.000         0.000         0.000
  

  Analysis begun on:  Thu Aug 13 15:08:45 2020
  Analysis ended on:  Thu Aug 13 15:08:47 2020
  Total elapsed time: 00:00:02