
  EPA STORM WATER MANAGEMENT MODEL - VERSION 5.1 (Build 5.3.0.dev0)
  --------------------------------------------------------------

  WARNING 04: minimum elevation drop used for Conduit WS02004404WS02004405
  WARNING 03: negative offset ignored for Link YS02001904YS02001907
  
  *********************************************************
  NOTE: The summary statistics displayed in this report are
  based on results found at every computational time step,  
  not just on results from each reporting time step.
  *********************************************************
  
  ****************
  Analysis Options
  ****************
  Flow Units ............... LPS
  Process Models:
    Rainfall/Runoff ........ YES
    RDII ................... NO
    Snowmelt ............... NO
    Groundwater ............ NO
    Flow Routing ........... YES
    Ponding Allowed ........ NO
    Water Quality .......... YES
  Infiltration Method ...... HORTON
  Flow Routing Method ...... DYNWAVE
  Surcharge Method ......... EXTRAN
  Starting Date ............ 08/28/2015 08:00:00
  Ending Date .............. 08/28/2015 15:50:00
  Antecedent Dry Days ...... 8.0
  Report Time Step ......... 00:01:00
  Wet Time Step ............ 00:01:00
  Dry Time Step ............ 00:01:00
  Routing Time Step ........ 5.00 sec
  Variable Time Step ....... YES
  Maximum Trials ........... 8
  Number of Threads ........ 4
  Head Tolerance ........... 0.001500 m
  
  
  **************************        Volume         Depth
  Runoff Quantity Continuity     hectare-m            mm
  **************************     ---------       -------
  Total Precipitation ......         7.641        16.729
  Evaporation Loss .........         0.000         0.000
  Infiltration Loss ........         1.184         2.592
  Surface Runoff ...........         5.481        12.000
  Final Storage ............         0.977         2.139
  Continuity Error (%) .....        -0.016
  
  
  **************************           COD            SS            TN            TP         NH4-N
  Runoff Quality Continuity             kg            kg            kg            kg            kg
  **************************    ----------    ----------    ----------    ----------    ----------
  Initial Buildup ..........     41378.656     70582.865      1804.177       168.684      1032.807
  Surface Buildup ..........        30.344        63.217         2.449         0.220         1.402
  Wet Deposition ...........         0.000         0.000         0.000         0.000         0.000
  Sweeping Removal .........         0.000         0.000         0.000         0.000         0.000
  Infiltration Loss ........       127.934       247.015         2.452         0.174         1.174
  BMP Removal ..............         0.000         0.000         0.000         0.000         0.000
  Surface Runoff ...........      5553.100     10632.121       107.101         7.411        51.076
  Remaining Buildup ........     35725.917     59762.998      1697.031       161.316       981.940
  Continuity Error (%) .....         0.005         0.006         0.002         0.002         0.002
  
  
  **************************        Volume        Volume
  Flow Routing Continuity        hectare-m      10^6 ltr
  **************************     ---------     ---------
  Dry Weather Inflow .......         0.616         6.165
  Wet Weather Inflow .......         5.479        54.792
  Groundwater Inflow .......         0.000         0.000
  RDII Inflow ..............         0.000         0.000
  External Inflow ..........         0.102         1.024
  External Outflow .........         2.283        22.831
  Flooding Loss ............         3.485        34.849
  Evaporation Loss .........         0.000         0.000
  Exfiltration Loss ........         0.000         0.000
  Initial Stored Volume ....         0.076         0.761
  Final Stored Volume ......         0.646         6.462
  Continuity Error (%) .....        -2.234
  
  
  **************************           COD            SS            TN            TP         NH4-N
  Quality Routing Continuity            kg            kg            kg            kg            kg
  **************************    ----------    ----------    ----------    ----------    ----------
  Dry Weather Inflow .......      1541.201      2465.922       147.955        18.494        92.472
  Wet Weather Inflow .......      5552.077     10630.313       107.079         7.410        51.066
  Groundwater Inflow .......         0.000         0.000         0.000         0.000         0.000
  RDII Inflow ..............         0.000         0.000         0.000         0.000         0.000
  External Inflow ..........       183.418       293.469        17.608         2.201        11.005
  External Outflow .........      2741.295      4914.128       145.302        16.484        86.272
  Flooding Loss ............      3825.292      7245.448        98.476         8.647        51.815
  Exfiltration Loss ........         0.000         0.000         0.000         0.000         0.000
  Mass Reacted .............         0.000         0.000         0.000         0.000         0.000
  Initial Stored Mass ......         0.000         0.000         0.000         0.000         0.000
  Final Stored Mass ........       553.146       965.060        24.439         2.598        14.129
  Continuity Error (%) .....         2.157         1.980         1.623         1.340         1.506
  
  
  *************************
  Highest Continuity Errors
  *************************
  Node JK-storage (-11.52%)
  Node HS02004842 (10.96%)
  Node YS02001884 (8.99%)
  Node HS02004817 (2.13%)
  Node YSB1171 (1.97%)
  
  
  ***************************
  Time-Step Critical Elements
  ***************************
  Link WS02006252WS02006251 (67.33%)
  Link WS02006280WS02006229 (11.34%)
  Link YS02001793JiankangQianchi (6.04%)
  Link WS02004404WS02004405 (3.54%)
  Link WS02006238WS02006235 (2.62%)
  
  
  ********************************
  Highest Flow Instability Indexes
  ********************************
  Link WS02006238WS02006235 (38)
  Link WS02006113WS02006111 (35)
  Link YS02163601YS02164001 (32)
  Link YS02001619YS02001622 (32)
  Link YS02001629YS02163301 (31)
  
  
  *************************
  Routing Time Step Summary
  *************************
  Minimum Time Step           :     0.50 sec
  Average Time Step           :     1.16 sec
  Maximum Time Step           :     5.00 sec
  Percent in Steady State     :    -0.00
  Average Iterations per Step :     4.12
  Percent Not Converging      :    18.35
  
  
  ***************************
  Subcatchment Runoff Summary
  ***************************
  
  ------------------------------------------------------------------------------------------------------------------------------
                            Total      Total      Total      Total     Imperv       Perv      Total       Total     Peak  Runoff
                           Precip      Runon       Evap      Infil     Runoff     Runoff     Runoff      Runoff   Runoff   Coeff
  Subcatchment                 mm         mm         mm         mm         mm         mm         mm    10^6 ltr      LPS
  ------------------------------------------------------------------------------------------------------------------------------
  sub0                      16.73       0.00       0.00       0.71      15.51       0.47      15.98        0.01     3.87   0.955
  sub1                      16.73       0.00       0.00       1.18      14.80       0.66      15.46        0.10    26.74   0.924
  sub2                      16.73       0.00       0.00       4.79      10.46       1.40      11.85        0.11    25.81   0.708
  sub3                      16.73       0.00       0.00       5.01      10.42       1.18      11.60        0.26    56.97   0.693
  sub4                      16.73       0.00       0.00       1.28      14.64       0.56      15.20        0.32    66.74   0.909
  sub5                      16.73       0.00       0.00       0.73      15.46       0.44      15.91        0.18    46.91   0.951
  sub7                      16.73       0.00       0.00       0.93      15.16       0.58      15.74        0.05    14.85   0.941
  sub8                      16.73       0.00       0.00       0.94      15.15       0.57      15.72        0.10    27.42   0.940
  sub9                      16.73       0.00       0.00       0.94      15.15       0.57      15.72        0.08    20.52   0.940
  sub10                     16.73       0.00       0.00       0.83      15.30       0.50      15.81        0.17    46.04   0.945
  sub11                     16.73       0.00       0.00       0.83      15.32       0.51      15.83        0.18    50.62   0.947
  sub12                     16.73       0.00       0.00       1.34      14.51       0.83      15.34        0.13    39.22   0.917
  sub14                     16.73       0.00       0.00       0.94      15.15       0.57      15.72        0.15    40.40   0.939
  sub15                     16.73       0.00       0.00       3.54      11.65       1.48      13.13        0.23    57.86   0.785
  sub16                     16.73       0.00       0.00       3.72      11.17       1.80      12.97        0.14    37.34   0.776
  sub17                     16.73       0.00       0.00       3.62      11.33       1.73      13.07        0.11    30.57   0.781
  sub22                     16.73       0.00       0.00       5.27       9.49       1.92      11.42        0.72   183.11   0.683
  sub23                     16.73       0.00       0.00       4.37      10.50       1.82      12.32        0.59   153.57   0.736
  sub60                     16.73       0.00       0.00       1.74      12.78       0.27      13.05        3.96   446.24   0.780
  sub61                     16.73       0.00       0.00       2.46      12.72       0.38      13.11        4.04   542.53   0.784
  sub62                     16.73       0.00       0.00       1.06      13.91       0.27      14.19        4.36   558.01   0.848
  sub63                     16.73       0.00       0.00       4.39      11.06       0.46      11.52        3.49   496.40   0.689
  sub64                     16.73       0.00       0.00       2.23      12.28       0.28      12.56        3.82   424.95   0.751
  sub65                     16.73       0.00       0.00       1.91      12.51       0.27      12.77        3.93   431.32   0.764
  sub66                     16.73       0.00       0.00       4.54      10.46       0.31      10.78        3.31   388.44   0.644
  sub67                     16.73       0.00       0.00       1.01      14.45       0.32      14.78        4.56   675.76   0.883
  sub68                     16.73       0.00       0.00       1.95      13.33       0.39      13.71        4.22   589.75   0.820
  sub69                     16.73       0.00       0.00       2.00      13.62       0.51      14.12        3.30   542.07   0.844
  sub70                     16.73      14.42       0.00       8.47      19.01       2.12      21.13        4.84   534.50   0.678
  sub71                     16.73       0.00       0.00       1.08      13.65       0.25      13.90        3.28   394.68   0.831
  sub72                     16.73       0.00       0.00       1.02      11.50       0.15      11.65        2.37   206.66   0.697
  1                         16.73      20.58       0.00       1.37      22.38       7.20      29.58        6.95   612.18   0.793
  2                         16.73       0.00       0.00       3.02       4.04       3.18       7.22        2.89   331.58   0.431
  
  
  ****************************
  Subcatchment Washoff Summary
  ****************************
  
  ------------------------------------------------------------------------------------------
                                 COD            SS            TN            TP         NH4-N
  Subcatchment                    kg            kg            kg            kg            kg
  ------------------------------------------------------------------------------------------
  sub0                         3.641         7.161         0.064         0.005         0.031
  sub1                        15.670        31.767         0.296         0.021         0.143
  sub2                        10.304        20.454         0.214         0.015         0.099
  sub3                        25.293        49.815         0.517         0.036         0.240
  sub4                        36.168        74.260         0.714         0.044         0.344
  sub5                        35.763        71.366         0.649         0.050         0.316
  sub7                         7.894        16.212         0.150         0.010         0.073
  sub8                        11.755        24.726         0.234         0.014         0.113
  sub9                        10.113        20.966         0.196         0.013         0.095
  sub10                       29.347        59.341         0.545         0.040         0.265
  sub11                       28.395        58.052         0.536         0.037         0.260
  sub12                       24.463        49.072         0.450         0.034         0.218
  sub14                       21.697        44.543         0.414         0.028         0.200
  sub15                       29.696        58.821         0.572         0.042         0.270
  sub16                       19.246        38.050         0.367         0.028         0.174
  sub17                       17.687        34.653         0.330         0.026         0.156
  sub22                       95.915       186.896         1.820         0.139         0.857
  sub23                       54.382       109.539         1.141         0.076         0.527
  sub60                      353.947       679.509         6.988         0.437         3.357
  sub61                      439.695       840.113         8.188         0.570         3.952
  sub62                      449.790       873.119         8.744         0.564         4.209
  sub63                      328.186       618.356         6.505         0.463         3.037
  sub64                      450.924       835.563         8.299         0.611         3.976
  sub65                      460.537       856.688         8.527         0.617         4.090
  sub66                      259.427       485.147         5.248         0.348         2.463
  sub67                      667.181      1281.068        12.075         0.900         5.853
  sub68                      479.473       924.467         9.153         0.628         4.389
  sub69                      429.286       835.450         8.068         0.576         3.873
  sub70                      758.301      1478.311        15.194         1.074         7.173
  sub71                      296.268       580.620         6.027         0.356         2.890
  sub72                      247.759       452.374         4.612         0.320         2.223
  1                          576.917      1130.968        11.723         0.829         5.484
  2                           65.566       118.435         1.802         0.109         0.773
  ------------------------------------------------------------------------------------------
  System                    6740.687     12945.882       130.363         9.060        62.122
  
  
  ******************
  Node Depth Summary
  ******************
  
  ---------------------------------------------------------------------------------
                                 Average  Maximum  Maximum  Time of Max    Reported
                                   Depth    Depth      HGL   Occurrence   Max Depth
  Node                 Type       Meters   Meters   Meters  days hr:min      Meters
  ---------------------------------------------------------------------------------
  WS02001211           JUNCTION     0.78     0.85     5.69     0  01:59        0.85
  WS02001212           JUNCTION     0.49     0.58     5.65     0  01:59        0.58
  WS02001213           JUNCTION     0.74     0.86     5.62     0  01:58        0.86
  WS02003069           JUNCTION     0.55     0.73     5.31     0  01:58        0.73
  WS02003072           JUNCTION     0.61     0.77     5.14     0  01:58        0.77
  WS02003073           JUNCTION     0.37     0.48     4.55     0  01:59        0.48
  WS02003060           JUNCTION     0.48     0.64     5.57     0  01:57        0.64
  WS02003066           JUNCTION     0.27     0.39     5.94     0  01:55        0.39
  WS02003059           JUNCTION     0.79     0.91     5.60     0  01:59        0.91
  WS02003067           JUNCTION     0.64     0.82     6.14     0  01:55        0.82
  WS02004401           JUNCTION     0.80     1.25     7.25     0  01:51        1.25
  WS02004402           JUNCTION     0.82     1.24     7.20     0  01:53        1.23
  WS02004403           JUNCTION     0.83     1.21     7.14     0  01:54        1.21
  WS02004404           JUNCTION     0.91     1.26     7.11     0  01:54        1.25
  WS02004406           JUNCTION     0.90     1.17     7.00     0  01:54        1.17
  WS02004409           JUNCTION     0.60     0.98     6.75     0  01:54        0.98
  WS02004410           JUNCTION     0.62     0.96     6.68     0  01:55        0.96
  WS02004411           JUNCTION     0.63     0.94     6.62     0  01:54        0.94
  WS02004412           JUNCTION     0.63     0.91     6.55     0  01:55        0.91
  WS02004413           JUNCTION     0.79     1.03     6.50     0  01:55        1.03
  WS02004405           JUNCTION     0.90     1.23     7.08     0  01:52        1.22
  WS02006109           JUNCTION     0.91     1.69     8.31     0  01:54        1.68
  WS02006110           JUNCTION     0.87     1.48     8.07     0  01:53        1.47
  WS02006111           JUNCTION     0.30     0.91     7.61     0  01:54        0.90
  WS02006112           JUNCTION     0.99     1.58     7.47     0  01:54        1.58
  WS02006113           JUNCTION     0.42     0.95     7.84     0  01:54        0.94
  WS02006115           JUNCTION     0.70     1.23     7.37     0  01:53        1.23
  WS02006116           JUNCTION     0.78     1.28     7.32     0  01:53        1.27
  WS02006230           JUNCTION     0.97     1.91     8.65     0  01:54        1.90
  WS02006231           JUNCTION     0.71     1.55     8.67     0  01:53        1.54
  WS02006232           JUNCTION     0.86     1.65     8.68     0  01:53        1.63
  WS02006234           JUNCTION     0.82     1.54     8.69     0  01:52        1.53
  WS02006235           JUNCTION     0.87     1.55     8.71     0  01:52        1.53
  WS02006238           JUNCTION     0.90     1.56     8.71     0  01:51        1.56
  WS02006240           JUNCTION     0.81     1.41     8.70     0  01:51        1.40
  WS02006242           JUNCTION     0.87     1.55     8.82     0  01:36        1.43
  WS02006243           JUNCTION     0.76     1.43     8.85     0  01:38        1.27
  WS02006245           JUNCTION     0.73     1.41     8.89     0  01:38        1.21
  WS02006247           JUNCTION     0.74     1.39     8.89     0  01:38        1.20
  WS02006248           JUNCTION     0.69     1.10     8.69     0  01:37        1.10
  WS02006249           JUNCTION     0.70     1.09     8.69     0  01:38        1.09
  WS02006239           JUNCTION     0.86     1.50     8.71     0  01:51        1.49
  WS02006251           JUNCTION     0.69     1.39     9.06     0  01:39        1.22
  WS02006252           JUNCTION     0.44     0.86     9.10     0  01:39        0.76
  WS02006253           JUNCTION     0.72     1.49     9.13     0  01:39        1.27
  WS02006256           JUNCTION     1.89     2.35     9.28     0  00:00        2.35
  WS02004138           JUNCTION     0.19     0.20     7.45     0  00:00        0.19
  WS02004139           JUNCTION     0.72     0.79     5.70     0  01:59        0.79
  WS02004407           JUNCTION     0.27     0.40     6.71     0  01:54        0.40
  WS02006228           JUNCTION     0.94     1.87     8.52     0  01:53        1.86
  WS02006229           JUNCTION     0.93     1.94     8.63     0  01:53        1.94
  WS02006280           JUNCTION     0.07     0.30     8.57     0  01:54        0.30
  WS02006284           JUNCTION     0.37     0.66     9.06     0  01:54        0.66
  WS02006287           JUNCTION     0.10     0.40     9.36     0  01:54        0.40
  WSF200               JUNCTION     0.27     0.44     5.67     0  01:55        0.44
  HS02004901           JUNCTION     0.13     0.38    10.21     0  01:53        0.38
  HS02004881           JUNCTION     0.01     0.05     9.08     0  01:54        0.05
  HS02004876           JUNCTION     0.04     0.17     9.20     0  01:54        0.17
  HS02004870           JUNCTION     0.02     0.10     9.38     0  01:54        0.10
  HS02004862           JUNCTION     0.02     0.11     9.50     0  01:55        0.11
  HS02004856           JUNCTION     0.08     0.15     9.58     0  01:54        0.15
  HS02004852           JUNCTION     0.01     0.08     9.59     0  01:54        0.08
  HS02004848           JUNCTION     0.01     0.07     9.67     0  01:54        0.07
  HS02004842           JUNCTION     0.34     0.40     9.67     0  01:54        0.40
  HS02004837           JUNCTION     0.03     0.09     9.67     0  01:54        0.09
  HS02004830           JUNCTION     0.04     0.11     9.58     0  01:55        0.11
  HS02004824           JUNCTION     0.03     0.15     9.55     0  01:54        0.15
  HS02004817           JUNCTION     0.45     0.71     9.56     0  01:54        0.71
  HS02004807           JUNCTION     0.13     0.38     9.55     0  01:55        0.38
  HS02004802           JUNCTION     0.17     0.41     9.54     0  01:55        0.41
  HS02004799           JUNCTION     0.13     0.48     9.69     0  01:53        0.48
  HS02004792           JUNCTION     0.04     0.22     9.75     0  01:53        0.22
  HS02004788           JUNCTION     0.03     0.16    10.06     0  01:54        0.16
  HS02004785           JUNCTION     0.05     0.25    10.15     0  01:53        0.25
  HS02004777           JUNCTION     0.15     0.40    10.20     0  01:53        0.40
  HS02004770           JUNCTION     0.12     0.37    10.21     0  01:53        0.37
  HS02004480           JUNCTION     0.09     0.39     9.64     0  01:53        0.39
  HS02004479           JUNCTION     0.12     0.43     9.64     0  01:53        0.43
  HS02004478           JUNCTION     0.07     0.29     9.52     0  01:54        0.29
  YS02001745           JUNCTION     0.76     0.92     8.44     0  02:51        0.92
  YS02001748           JUNCTION     1.16     1.36     8.44     0  02:47        1.36
  YS02001751           JUNCTION     1.34     1.55     8.43     0  02:38        1.55
  YS02001754           JUNCTION     1.60     1.82     8.43     0  02:34        1.81
  YS02001762           JUNCTION     1.80     2.03     8.43     0  02:36        2.02
  YS02001765           JUNCTION     1.75     1.98     8.43     0  02:26        1.97
  YS02001767           JUNCTION     1.72     1.93     8.42     0  02:39        1.92
  YS02001770           JUNCTION     1.71     1.92     8.41     0  02:34        1.91
  YS02001774           JUNCTION     1.78     1.98     8.40     0  02:38        1.97
  YS02001779           JUNCTION     1.52     1.68     8.37     0  01:46        1.68
  YS02001882           JUNCTION     0.62     1.68     8.39     0  01:52        1.63
  YS02001884           JUNCTION     0.72     1.77     8.38     0  01:52        1.73
  YS02001759           JUNCTION     1.83     2.07     8.43     0  02:26        2.06
  YS02001887           JUNCTION     0.79     1.83     8.36     0  01:52        1.81
  YS02001890           JUNCTION     0.82     1.81     8.32     0  01:52        1.81
  YS02001898           JUNCTION     0.59     1.58     8.31     0  01:52        1.56
  YS02001901           JUNCTION     0.71     1.68     8.29     0  01:52        1.67
  YS02001904           JUNCTION     0.69     1.64     8.27     0  01:52        1.63
  YS02001907           JUNCTION     1.02     1.96     8.25     0  01:52        1.96
  YS02001910           JUNCTION     0.81     1.85     8.36     0  01:54        1.85
  YS02001915           JUNCTION     0.61     1.71     8.43     0  01:54        1.71
  YS02001918           JUNCTION     0.36     1.50     8.56     0  01:53        1.49
  YS02001619           JUNCTION     1.31     1.49     8.42     0  01:47        1.49
  YS02001629           JUNCTION     1.66     1.85     8.40     0  01:47        1.85
  YS02001641           JUNCTION     1.76     1.93     8.37     0  01:51        1.93
  YS02001644           JUNCTION     1.76     1.92     8.35     0  01:47        1.92
  YS02001652           JUNCTION     1.61     2.02     8.61     0  04:02        1.89
  YS02001655           JUNCTION     1.37     1.95     8.80     0  04:02        1.69
  YS02001920           JUNCTION     0.46     1.62     8.62     0  01:53        1.60
  YS02001923           JUNCTION     0.29     1.41     8.67     0  01:53        1.39
  YS02001926           JUNCTION     0.34     1.24     8.69     0  01:53        1.23
  YS02001929           JUNCTION     0.20     1.06     8.75     0  01:53        1.00
  YS02001658           JUNCTION     1.10     1.85     9.00     0  04:02        1.44
  YS02001661           JUNCTION     0.87     1.99     9.40     0  03:57        1.23
  YS02001664           JUNCTION     0.39     0.57     8.49     0  04:00        0.56
  YS02001622           JUNCTION     1.33     1.51     8.41     0  01:47        1.50
  YS02001633           JUNCTION     1.75     1.95     8.40     0  01:56        1.94
  YS02001649           JUNCTION     1.81     2.05     8.44     0  03:35        2.05
  YS02001757           JUNCTION     1.93     2.17     8.43     0  03:36        2.16
  YS02001895           JUNCTION     0.58     1.57     8.32     0  01:52        1.56
  YS02001625           JUNCTION     1.61     1.78     8.38     0  01:46        1.78
  YS02163301           JUNCTION     1.69     1.88     8.40     0  01:48        1.88
  YS02163601           JUNCTION     1.80     1.99     8.39     0  01:48        1.98
  YS02164001           JUNCTION     1.74     1.92     8.38     0  02:03        1.91
  YS02001647           JUNCTION     1.59     1.80     8.41     0  01:51        1.78
  YSB1154              JUNCTION     0.27     0.58     9.64     0  01:53        0.58
  YSB6556              JUNCTION     0.16     0.47     9.64     0  01:53        0.47
  YSB1174              JUNCTION     0.22     0.53     9.64     0  01:53        0.53
  YSB1171              JUNCTION     0.42     0.74     9.64     0  01:53        0.74
  YS02006553           JUNCTION     1.02     2.01     8.29     0  01:52        1.97
  YS02006561           JUNCTION     0.36     1.26     7.92     0  01:52        1.09
  YS02006556           JUNCTION     0.98     2.02     8.33     0  01:52        1.93
  YS02006558           JUNCTION     1.03     2.07     8.34     0  01:52        1.97
  YS02001783           JUNCTION     0.59     1.64     7.78     0  01:52        1.48
  YS02001784           JUNCTION     0.60     1.59     7.66     0  01:52        1.43
  YS02001786           JUNCTION     0.53     1.46     7.49     0  01:52        1.27
  YS02001788           JUNCTION     0.46     1.41     7.39     0  01:52        1.14
  YS02001790           JUNCTION     0.58     1.96     7.60     0  06:33        1.30
  YS02001791           JUNCTION     0.54     1.62     7.09     0  06:33        1.27
  YS02001793           JUNCTION     0.75     1.91     6.75     0  04:41        1.80
  WSC                  OUTFALL      0.37     0.48     1.15     0  01:59        0.48
  JK-storage           STORAGE      2.76     5.80     6.60     0  01:52        5.80
  CC-storage           STORAGE      1.17     1.40     8.40     0  03:14        1.40
  XR-storage           STORAGE      7.03     7.72     5.72     0  02:06        7.72
  
  
  *******************
  Node Inflow Summary
  *******************
  
  -------------------------------------------------------------------------------------------------
                                  Maximum  Maximum                  Lateral       Total        Flow
                                  Lateral    Total  Time of Max      Inflow      Inflow     Balance
                                   Inflow   Inflow   Occurrence      Volume      Volume       Error
  Node                 Type           LPS      LPS  days hr:min    10^6 ltr    10^6 ltr     Percent
  -------------------------------------------------------------------------------------------------
  WS02001211           JUNCTION      7.35   389.32     0  03:20       0.207        10.3       0.404
  WS02001212           JUNCTION      0.00   391.09     0  03:20           0        10.2       0.252
  WS02001213           JUNCTION      0.00   392.69     0  03:19           0        10.2       0.293
  WS02003069           JUNCTION      0.32  1352.26     0  01:58     0.00902        22.9       0.177
  WS02003072           JUNCTION      0.00  1352.29     0  01:58           0        22.9       0.206
  WS02003073           JUNCTION      1.82  1354.18     0  01:59      0.0514        22.9       0.242
  WS02003060           JUNCTION     16.53  1351.92     0  01:57       0.466          23       0.165
  WS02003066           JUNCTION      0.00   953.25     0  01:55           0        12.4       0.046
  WS02003059           JUNCTION      0.00   395.01     0  06:08           0        10.2       0.417
  WS02003067           JUNCTION      0.00   953.16     0  01:55           0        12.4       0.089
  WS02004401           JUNCTION      0.00   953.98     0  01:54           0        12.7       0.201
  WS02004402           JUNCTION      0.00   953.87     0  01:53           0        12.6       0.186
  WS02004403           JUNCTION      0.00   954.14     0  01:53           0        12.6       0.167
  WS02004404           JUNCTION      0.16   954.05     0  01:54     0.00457        12.6       0.121
  WS02004406           JUNCTION      0.00   954.00     0  01:54           0        12.6       0.295
  WS02004409           JUNCTION      0.00   953.45     0  01:54           0        12.5       0.175
  WS02004410           JUNCTION      0.00   953.13     0  01:54           0        12.5       0.191
  WS02004411           JUNCTION      0.00   953.07     0  01:54           0        12.5       0.192
  WS02004412           JUNCTION      0.00   953.07     0  01:55           0        12.5       0.201
  WS02004413           JUNCTION      0.00   953.15     0  01:55           0        12.4       0.288
  WS02004405           JUNCTION      0.04   955.25     0  01:54     0.00107        12.6       0.180
  WS02006109           JUNCTION      1.23   923.72     0  01:54      0.0347        12.7       0.163
  WS02006110           JUNCTION      0.00   923.65     0  01:54           0        12.7       0.170
  WS02006111           JUNCTION      0.00   923.69     0  01:54           0        12.7       0.044
  WS02006112           JUNCTION     30.57   953.83     0  01:53       0.112        12.8       0.270
  WS02006113           JUNCTION      0.00   923.51     0  01:54           0        12.7       0.101
  WS02006115           JUNCTION      0.00   953.70     0  01:54           0        12.7       0.206
  WS02006116           JUNCTION      0.00   954.49     0  01:54           0        12.7       0.177
  WS02006230           JUNCTION     10.28   534.75     0  06:51        0.29        9.61       0.185
  WS02006231           JUNCTION      0.00   524.36     0  06:51           0        9.34       0.145
  WS02006232           JUNCTION      0.00   524.06     0  06:51           0        9.35       0.197
  WS02006234           JUNCTION      0.00   524.13     0  06:51           0        9.36       0.113
  WS02006235           JUNCTION      0.00   525.15     0  06:51           0        9.44       0.132
  WS02006238           JUNCTION      0.00   418.15     0  04:30           0        5.73       0.156
  WS02006240           JUNCTION      0.00   417.09     0  04:30           0         5.7       0.278
  WS02006242           JUNCTION      0.00   416.93     0  04:30           0         5.7       0.325
  WS02006243           JUNCTION      0.00   416.65     0  04:30           0        5.69       0.223
  WS02006245           JUNCTION      0.00   416.19     0  04:30           0         5.7       0.217
  WS02006247           JUNCTION      0.00   415.83     0  04:30           0         5.7       0.178
  WS02006248           JUNCTION      0.00   416.37     0  04:30           0        5.73       0.108
  WS02006249           JUNCTION      0.00   557.07     0  01:53           0        7.54       0.168
  WS02006239           JUNCTION      0.00   417.84     0  04:30           0        5.71       0.232
  WS02006251           JUNCTION      0.08   558.14     0  01:53     0.00217        7.61       0.134
  WS02006252           JUNCTION      0.00   400.00     0  01:50           0        6.94       0.005
  WS02006253           JUNCTION      3.87   162.55     0  01:38      0.0129       0.673       0.799
  WS02006256           JUNCTION      0.00   983.00     0  02:00           0        12.5      -0.007
  WS02004138           JUNCTION      0.00   380.00     0  00:00           0        10.1       0.062
  WS02004139           JUNCTION      0.32   395.85     0  00:00     0.00905        10.1       0.461
  WS02004407           JUNCTION      0.00   953.77     0  01:54           0        12.5       0.077
  WS02006228           JUNCTION      0.00   922.45     0  01:53           0        12.7       0.130
  WS02006229           JUNCTION      0.00   922.68     0  01:53           0        12.7       0.121
  WS02006280           JUNCTION      0.00   736.10     0  01:54           0        3.11       0.005
  WS02006284           JUNCTION      0.10   735.84     0  01:54      0.0027        3.11       0.020
  WS02006287           JUNCTION      0.00   735.63     0  01:54           0        3.11       0.023
  WSF200               JUNCTION      0.00   953.28     0  01:55           0        12.4       0.047
  HS02004901           JUNCTION     37.34    37.34     0  01:51       0.136       0.136       1.312
  HS02004881           JUNCTION     14.85   153.29     0  01:54       0.053       0.601       0.071
  HS02004876           JUNCTION     26.74   139.06     0  01:54       0.103       0.549       0.099
  HS02004870           JUNCTION     27.42   112.65     0  01:54         0.1       0.446       0.025
  HS02004862           JUNCTION     26.01    86.18     0  01:54       0.116       0.346       0.050
  HS02004856           JUNCTION     20.52    60.23     0  01:54      0.0756       0.231       0.628
  HS02004852           JUNCTION      0.00    40.37     0  01:54           0       0.155       0.036
  HS02004848           JUNCTION     56.97    56.97     0  01:56       0.261       0.261       0.018
  HS02004842           JUNCTION      0.00    18.18     0  02:06           0       0.119      12.305
  HS02004837           JUNCTION     52.39    67.88     0  01:54       0.353       0.459       0.178
  HS02004830           JUNCTION      0.15    67.98     0  01:54     0.00423       0.449       0.275
  HS02004824           JUNCTION     66.79   134.69     0  01:56       0.318       0.767       0.071
  HS02004817           JUNCTION      0.60   136.94     0  01:57      0.0169       0.783       2.174
  HS02004807           JUNCTION     50.62   184.20     0  01:55       0.184       0.952       0.461
  HS02004802           JUNCTION      0.00   183.95     0  01:56           0        0.95       0.417
  HS02004799           JUNCTION     40.40   470.75     0  01:53        0.15        1.87       0.159
  HS02004792           JUNCTION    183.39   430.98     0  01:53       0.729        1.72       0.024
  HS02004788           JUNCTION     59.53   248.80     0  01:53       0.273       0.991       0.039
  HS02004785           JUNCTION      0.15   189.56     0  01:53     0.00423        0.72       0.069
  HS02004777           JUNCTION      0.03   189.72     0  01:52    0.000846        0.72       0.727
  HS02004770           JUNCTION    153.57   190.37     0  01:52       0.587       0.722       0.430
  HS02004480           JUNCTION      0.00   554.31     0  01:53           0        2.18       0.044
  HS02004479           JUNCTION      0.00    83.76     0  01:53           0       0.323       0.228
  HS02004478           JUNCTION      0.00   735.58     0  01:54           0        3.11       0.010
  YS02001745           JUNCTION    446.25   446.25     0  02:16        3.95        3.95       0.264
  YS02001748           JUNCTION      0.04   455.47     0  02:16     0.00127        3.95       0.581
  YS02001751           JUNCTION      0.01   455.55     0  02:16     0.00031        3.92       0.615
  YS02001754           JUNCTION      0.26   455.63     0  02:16     0.00733        3.91       0.635
  YS02001762           JUNCTION      0.00   424.85     0  01:55           0        2.22       0.961
  YS02001765           JUNCTION      0.00   425.62     0  01:55           0        2.22       1.107
  YS02001767           JUNCTION      0.54   425.90     0  01:55      0.0151        2.25       1.614
  YS02001770           JUNCTION    558.16   589.83     0  02:58        4.36        4.85       0.655
  YS02001774           JUNCTION      0.00   590.33     0  02:58           0        3.07       0.805
  YS02001779           JUNCTION      0.01   590.55     0  02:58    0.000141        3.04       0.512
  YS02001882           JUNCTION      0.00    22.11     0  01:49           0      0.0347       6.962
  YS02001884           JUNCTION      0.00    42.72     0  01:48           0       0.073       9.881
  YS02001759           JUNCTION    542.57   886.01     0  01:59        4.04        5.75       0.400
  YS02001887           JUNCTION    676.21   677.50     0  02:13        4.57         4.6       0.198
  YS02001890           JUNCTION      0.00   677.50     0  02:14           0        4.55       0.208
  YS02001898           JUNCTION      0.00   544.13     0  01:52           0        4.27       0.089
  YS02001901           JUNCTION      0.00   545.31     0  01:52           0        4.27       0.160
  YS02001904           JUNCTION      0.00   544.42     0  01:52           0        4.26       0.152
  YS02001907           JUNCTION      0.00  1200.63     0  01:54           0        9.98       0.251
  YS02001910           JUNCTION      0.00   685.83     0  01:54           0        5.72       0.226
  YS02001915           JUNCTION    394.70   685.36     0  01:54        3.28        5.77       0.103
  YS02001918           JUNCTION      0.00   388.83     0  01:54           0        2.52       0.060
  YS02001619           JUNCTION    388.44   388.44     0  02:16         3.3         3.3       0.371
  YS02001629           JUNCTION      0.00   212.25     0  01:47           0        1.42       2.088
  YS02001641           JUNCTION      0.00   443.34     0  01:46           0        5.09       0.413
  YS02001644           JUNCTION    424.99  1397.27     0  03:00        3.82        12.6       0.207
  YS02001652           JUNCTION      0.00   524.40     0  02:13           0        3.45       0.667
  YS02001655           JUNCTION      0.15   524.11     0  02:13     0.00434        3.48       0.743
  YS02001920           JUNCTION      2.87   387.65     0  01:54      0.0809         2.5       0.119
  YS02001923           JUNCTION      0.04   310.27     0  01:55     0.00106         2.4       0.041
  YS02001926           JUNCTION      0.05   277.94     0  01:54     0.00147        2.38       0.131
  YS02001929           JUNCTION    206.66   206.66     0  03:01        2.37        2.37       0.021
  YS02001658           JUNCTION      0.00   526.16     0  02:04           0         3.5       0.728
  YS02001661           JUNCTION      0.00   766.87     0  02:00           0        3.79      -0.444
  YS02001664           JUNCTION    496.40   496.40     0  02:16        3.49         3.8       0.155
  YS02001622           JUNCTION      0.00   389.10     0  02:15           0        3.29       0.971
  YS02001633           JUNCTION    431.52   439.34     0  01:47        3.93        5.23       0.614
  YS02001649           JUNCTION      0.00   928.34     0  01:58           0        6.82       0.543
  YS02001757           JUNCTION      0.00  2160.11     0  02:00           0        12.2       0.753
  YS02001895           JUNCTION      0.00   544.14     0  01:52           0        4.27       0.125
  YS02001625           JUNCTION      0.00   435.90     0  02:16           0        3.34       1.188
  YS02163301           JUNCTION      0.00   217.58     0  01:46           0        1.41       1.709
  YS02163601           JUNCTION      0.11   438.25     0  01:46      0.0031         5.1       0.594
  YS02164001           JUNCTION      0.00   440.62     0  01:46           0        5.09       0.393
  YS02001647           JUNCTION      0.00   662.05     0  01:47           0        5.55       0.516
  YSB1154              JUNCTION     46.91    46.91     0  01:52        0.18       0.181       0.806
  YSB6556              JUNCTION      0.00    46.64     0  01:52           0       0.182       0.696
  YSB1174              JUNCTION     39.22    39.22     0  01:50       0.134       0.134       0.964
  YSB1171              JUNCTION      0.00    84.01     0  01:52           0       0.322       2.009
  YS02006553           JUNCTION      0.00   716.97     0  03:35           0        7.33       0.219
  YS02006561           JUNCTION      0.00  1116.42     0  01:52           0        11.5       0.006
  YS02006556           JUNCTION      0.00   716.87     0  03:35           0        7.33       0.155
  YS02006558           JUNCTION    590.63  1117.96     0  01:52        4.24        11.5       0.047
  YS02001783           JUNCTION      0.00  1083.98     0  01:52           0        11.5       0.023
  YS02001784           JUNCTION      1.06  1084.28     0  01:52      0.0299        11.5       0.035
  YS02001786           JUNCTION      0.06  1083.87     0  01:52     0.00159        11.5       0.031
  YS02001788           JUNCTION      0.07  1082.53     0  01:52       0.002        11.5       0.019
  YS02001790           JUNCTION      0.15  1061.42     0  01:51     0.00437        11.5       0.017
  YS02001791           JUNCTION      0.00  1096.18     0  01:51           0        11.5       0.007
  YS02001793           JUNCTION      0.00  1004.15     0  01:51           0        11.5      -0.007
  WSC                  OUTFALL       0.00  1354.34     0  01:59           0        22.8       0.000
  JK-storage           STORAGE       0.00  1002.92     0  01:52           0        11.7     -10.328
  CC-storage           STORAGE       0.00  2161.13     0  02:00           0        10.5       0.596
  XR-storage           STORAGE    1054.62  1054.62     0  03:01        15.5        16.1      -0.002
  
  
  **********************
  Node Surcharge Summary
  **********************
  
  Surcharging occurs when water rises above the top of the highest conduit.
  ---------------------------------------------------------------------
                                               Max. Height   Min. Depth
                                   Hours       Above Crown    Below Rim
  Node                 Type      Surcharged         Meters       Meters
  ---------------------------------------------------------------------
  WS02004401           JUNCTION        1.50          0.251        1.409
  WS02004402           JUNCTION        1.53          0.236        1.504
  WS02004403           JUNCTION        1.53          0.210        1.820
  WS02004404           JUNCTION        1.67          0.259        2.521
  WS02004406           JUNCTION        1.60          0.172        2.278
  WS02004413           JUNCTION        0.58          0.029        2.171
  WS02004405           JUNCTION        1.64          0.230        2.570
  WS02006109           JUNCTION        5.17          0.870        0.950
  WS02006110           JUNCTION        3.57          0.572        1.278
  WS02006111           JUNCTION        0.42          0.097        1.773
  WS02006112           JUNCTION        3.98          0.583        1.097
  WS02006113           JUNCTION        0.48          0.148        1.782
  WS02006115           JUNCTION        0.90          0.224        2.026
  WS02006116           JUNCTION        0.97          0.219        2.071
  WS02006230           JUNCTION        3.23          0.827        0.743
  WS02006231           JUNCTION        3.95          0.837        0.693
  WS02006232           JUNCTION        5.19          0.946        0.534
  WS02006234           JUNCTION        4.99          0.817        0.423
  WS02006235           JUNCTION        5.08          0.838        0.452
  WS02006238           JUNCTION        5.13          0.844        0.586
  WS02006240           JUNCTION        5.05          0.698        0.692
  WS02006242           JUNCTION        5.12          0.820        0.000
  WS02006243           JUNCTION        4.65          0.723        0.047
  WS02006245           JUNCTION        4.43          0.697        0.153
  WS02006247           JUNCTION        4.45          0.677        0.083
  WS02006248           JUNCTION        3.97          0.380        0.000
  WS02006249           JUNCTION        4.09          0.390        0.000
  WS02006239           JUNCTION        5.06          0.756        0.534
  WS02006251           JUNCTION        2.87          0.358        0.822
  WS02006252           JUNCTION        4.28          0.460        0.640
  WS02006253           JUNCTION        2.91          0.450        2.030
  WS02006256           JUNCTION        7.22          2.050        0.000
  WS02006228           JUNCTION        5.16          1.038        1.162
  HS02004817           JUNCTION        0.15          0.010        1.730
  YS02001748           JUNCTION        6.05          0.281        0.909
  YS02001751           JUNCTION        6.08          0.554        0.646
  YS02001754           JUNCTION        6.13          0.770        0.380
  YS02001762           JUNCTION        6.19          1.026        0.124
  YS02001765           JUNCTION        6.18          0.977        0.123
  YS02001767           JUNCTION        6.18          0.932        0.098
  YS02001770           JUNCTION        6.17          0.889        0.031
  YS02001774           JUNCTION        6.19          0.979        0.071
  YS02001779           JUNCTION        6.13          0.680        0.000
  YS02001882           JUNCTION        1.79          0.676        0.154
  YS02001884           JUNCTION        1.80          0.706        0.164
  YS02001759           JUNCTION        6.20          1.069        0.141
  YS02001887           JUNCTION        1.86          0.775        0.175
  YS02001890           JUNCTION        1.88          0.760        0.000
  YS02001898           JUNCTION        1.75          0.546        0.194
  YS02001901           JUNCTION        1.83          0.682        0.188
  YS02001904           JUNCTION        1.82          0.639        0.211
  YS02001907           JUNCTION        2.37          0.950        0.000
  YS02001910           JUNCTION        1.92          0.850        0.250
  YS02001915           JUNCTION        1.78          0.713        0.287
  YS02001918           JUNCTION        1.62          0.498        0.312
  YS02001619           JUNCTION        6.09          0.489        0.121
  YS02001629           JUNCTION        6.09          0.469        0.001
  YS02001641           JUNCTION        6.18          0.935        0.165
  YS02001644           JUNCTION        6.18          0.920        0.000
  YS02001652           JUNCTION        6.15          0.988        0.142
  YS02001655           JUNCTION        6.10          0.948        0.252
  YS02001920           JUNCTION        1.65          0.615        0.525
  YS02001923           JUNCTION        0.01          0.199        0.621
  YS02001926           JUNCTION        0.01          0.244        0.656
  YS02001929           JUNCTION        0.01          0.056        0.724
  YS02001658           JUNCTION        6.06          0.854        0.446
  YS02001661           JUNCTION        0.19          0.921        0.469
  YS02001622           JUNCTION        6.09          0.505        0.115
  YS02001633           JUNCTION        6.17          0.927        0.133
  YS02001649           JUNCTION        6.19          1.050        0.000
  YS02001757           JUNCTION        6.23          1.169        0.041
  YS02001895           JUNCTION        1.76          0.572        0.178
  YS02001625           JUNCTION        6.15          0.780        0.000
  YS02163301           JUNCTION        6.17          0.883        0.147
  YS02163601           JUNCTION        6.20          0.988        0.092
  YS02164001           JUNCTION        6.17          0.918        0.182
  YS02001647           JUNCTION        6.15          0.799        0.101
  YS02006553           JUNCTION        2.44          1.006        0.184
  YS02006561           JUNCTION        1.64          0.457        0.693
  YS02006556           JUNCTION        2.10          0.982        0.368
  YS02006558           JUNCTION        2.07          0.975        0.425
  YS02001783           JUNCTION        1.88          0.838        0.762
  YS02001784           JUNCTION        1.84          0.787        0.703
  YS02001786           JUNCTION        1.74          0.655        0.775
  YS02001788           JUNCTION        1.68          0.609        0.871
  YS02001790           JUNCTION        2.44          1.157        0.000
  YS02001791           JUNCTION        2.53          0.823        1.097
  YS02001793           JUNCTION        2.80          0.914        1.686
  
  
  *********************
  Node Flooding Summary
  *********************
  
  Flooding refers to all water that overflows a node, whether it ponds or not.
  --------------------------------------------------------------------------
                                                             Total   Maximum
                                 Maximum   Time of Max       Flood    Ponded
                        Hours       Rate    Occurrence      Volume     Depth
  Node                 Flooded       LPS   days hr:min    10^6 ltr    Meters
  --------------------------------------------------------------------------
  WS02006242              0.01    106.73      0  01:36       0.000     0.000
  WS02006248              0.29     56.76      0  01:37       0.023     0.000
  WS02006249              2.79    491.55      0  01:55       1.796     0.000
  WS02006256              4.92    828.71      0  02:00       8.718     0.000
  YS02001779              3.27    590.54      0  02:58       3.023     0.000
  YS02001890              0.80    160.85      0  02:14       0.272     0.000
  YS02001907              1.51    715.90      0  02:15       2.636     0.000
  YS02001644              4.81   1397.24      0  03:00      10.708     0.000
  YS02001649              0.01     22.31      0  04:02       0.000     0.000
  YS02001625              2.16    435.56      0  02:16       1.972     0.000
  YS02001790              0.01    111.38      0  06:33       0.000     0.000
  JK-storage              0.60    505.56      0  01:52       0.546     0.000
  XR-storage              4.70    674.56      0  03:01       5.155     0.000
  
  
  **********************
  Storage Volume Summary
  **********************
  
  --------------------------------------------------------------------------------------------------
                         Average     Avg  Evap Exfil       Maximum     Max    Time of Max    Maximum
                          Volume    Pcnt  Pcnt  Pcnt        Volume    Pcnt     Occurrence    Outflow
  Storage Unit           1000 m3    Full  Loss  Loss       1000 m3    Full    days hr:min        LPS
  --------------------------------------------------------------------------------------------------
  JK-storage               0.139      48     0     0         0.291     100       0  01:52     983.00
  CC-storage               3.270      21     0     0         3.891      25       0  03:14     400.00
  XR-storage               0.844      91     0     0         0.926     100       0  02:06     380.00
  
  
  ***********************
  Outfall Loading Summary
  ***********************
  
  ---------------------------------------------------------------------------------------------------------------------------------
                         Flow       Avg       Max       Total         Total         Total         Total         Total         Total
                         Freq      Flow      Flow      Volume           COD            SS            TN            TP         NH4-N
  Outfall Node           Pcnt       LPS       LPS    10^6 ltr            kg            kg            kg            kg            kg
  ---------------------------------------------------------------------------------------------------------------------------------
  WSC                   99.98    857.23   1354.34      22.831      2741.435      4914.378       145.310        16.485        86.277
  ---------------------------------------------------------------------------------------------------------------------------------
  System                99.98    857.23   1354.34      22.831      2741.435      4914.378       145.310        16.485        86.277
  
  
  ********************
  Link Flow Summary
  ********************
  
  -----------------------------------------------------------------------------
                                 Maximum  Time of Max   Maximum    Max/    Max/
                                  |Flow|   Occurrence   |Veloc|    Full    Full
  Link                 Type          LPS  days hr:min     m/sec    Flow   Depth
  -----------------------------------------------------------------------------
  WS02003066WSF200     CONDUIT    953.28     0  01:55      3.10    0.16    0.32
  WS02006287WS02006284 CONDUIT    735.74     0  01:54      2.45    0.34    0.41
  WS02006284WS02006280 CONDUIT    736.10     0  01:54      2.68    0.31    0.38
  WS02006280WS02006229 CONDUIT    736.11     0  01:54      3.66    0.16    0.53
  WS02006229WS02006228 CONDUIT    922.45     0  01:53      1.84    3.06    1.00
  WS02006256WS02006235 CONDUIT    288.92     0  00:00      4.23    3.06    1.00
  WS02006253WS02006251 CONDUIT    157.47     0  01:54      0.56    0.47    1.00
  WS02006252WS02006251 CONDUIT    404.30     0  06:51      3.22    1.48    1.00
  WS02006251WS02006249 CONDUIT    557.07     0  01:53      1.45    1.61    1.00
  WS02006249WS02006248 CONDUIT    416.37     0  04:30      1.19    2.28    1.00
  WS02006248WS02006247 CONDUIT    415.83     0  04:30      1.16    0.91    1.00
  WS02006247WS02006245 CONDUIT    416.19     0  04:30      1.13    3.30    1.00
  WS02006245WS02006243 CONDUIT    416.65     0  04:30      1.17    1.23    1.00
  WS02006243WS02006242 CONDUIT    416.93     0  04:30      1.08    0.89    1.00
  WS02006242WS02006240 CONDUIT    417.09     0  04:30      1.08    1.66    1.00
  WS02006240WS02006239 CONDUIT    417.84     0  04:30      1.09    1.31    1.00
  WS02006239WS02006238 CONDUIT    418.15     0  04:30      1.09    1.34    1.00
  WS02006238WS02006235 CONDUIT    419.90     0  04:30      1.45    0.94    1.00
  WS02006235WS02006234 CONDUIT    524.13     0  06:51      1.36    5.53    1.00
  WS02006234WS02006232 CONDUIT    524.06     0  06:51      1.39    1.06    1.00
  WS02006232WS02006231 CONDUIT    524.36     0  06:51      1.36    1.10    1.00
  WS02006231WS02006230 CONDUIT    524.47     0  06:51      1.36    7.96    1.00
  WS02006230WS02006229 CONDUIT    536.86     0  06:51      1.39   11.95    1.00
  WS02006228WS02006109 CONDUIT    922.49     0  01:54      1.84    4.03    1.00
  WS02006116WS02004401 CONDUIT    953.98     0  01:54      1.21    1.31    1.00
  WS02006115WS02006116 CONDUIT    954.49     0  01:54      1.22    1.22    1.00
  WS02006113WS02006111 CONDUIT    923.69     0  01:54      2.66    1.11    1.00
  WS02006112WS02006115 CONDUIT    953.70     0  01:54      1.21    0.56    1.00
  WS02006111WS02006112 CONDUIT    923.89     0  01:54      1.84    0.44    1.00
  WS02006110WS02006113 CONDUIT    923.51     0  01:54      1.84    0.84    1.00
  WS02006109WS02006110 CONDUIT    923.65     0  01:54      1.84    1.78    1.00
  WS02004411WS02004412 CONDUIT    953.07     0  01:55      1.26    1.35    0.93
  WS02004401WS02004402 CONDUIT    953.87     0  01:53      1.21    1.15    1.00
  WS02004413WS02003067 CONDUIT    953.16     0  01:55      1.57    0.41    0.72
  WS02004412WS02004413 CONDUIT    953.15     0  01:55      1.23    0.64    0.96
  WS02004410WS02004411 CONDUIT    953.07     0  01:54      1.24    1.30    0.95
  WS02004409WS02004410 CONDUIT    953.13     0  01:54      1.23    1.23    0.97
  WS02004407WS02004409 CONDUIT    953.45     0  01:54      1.72    0.34    0.69
  WS02004406WS02004407 CONDUIT    953.77     0  01:54      1.62    0.43    0.70
  WS02004405WS02004406 CONDUIT    954.00     0  01:54      1.21    1.88    1.00
  WS02004404WS02004405 CONDUIT    955.21     0  01:54      1.22    9.36    1.00
  WS02004403WS02004404 CONDUIT    953.88     0  01:54      1.21    0.69    1.00
  WS02004402WS02004403 CONDUIT    954.14     0  01:53      1.21    1.37    1.00
  WS02004139WS02001211 CONDUIT    381.97     0  03:20      0.90    0.48    0.64
  WS02004138WS02004139 CONDUIT    395.52     0  00:00      3.64    0.08    0.47
  WS02003067WS02003066 CONDUIT    953.25     0  01:55      1.66    0.31    0.51
  WS02001213WS02003059 CONDUIT    395.01     0  06:08      0.89    0.65    0.88
  WS02001212WS02001213 CONDUIT    392.69     0  03:19      1.32    0.61    0.56
  WS02001211WS02001212 CONDUIT    391.09     0  03:20      0.78    0.30    0.72
  WS02003072WS02003073 CONDUIT   1352.35     0  01:59      1.97    2.92    0.58
  WS02003069WS02003072 CONDUIT   1352.29     0  01:58      1.83    0.65    0.62
  WS02003060WS02003069 CONDUIT   1351.94     0  01:58      2.03    0.53    0.57
  WS02003059WS02003060 CONDUIT    398.49     0  06:21      0.95    0.26    0.78
  HS02004901HS02004770 CONDUIT     36.84     0  01:52      0.10    0.14    0.54
  HS02004876HS02004881 CONDUIT    139.08     0  01:54      1.26    1.48    0.16
  HS02004870HS02004876 CONDUIT    112.62     0  01:54      0.85    0.07    0.19
  HS02004842HS02004848 CONDUIT     18.18     0  02:06      0.08    0.01    0.34
  HS02004837HS02004842 CONDUIT     18.64     0  02:07      0.42    0.01    0.35
  HS02004830HS02004837 CONDUIT     67.83     0  01:54      0.68    0.07    0.14
  HS02004824HS02004830 CONDUIT     68.05     0  01:56      0.62    0.09    0.18
  HS02004817HS02004824 CONDUIT    136.34     0  01:57      0.32    0.06    0.60
  HS02004770HS02004777 CONDUIT    189.69     0  01:52      0.49    0.35    0.55
  HS02004799HS02004480 CONDUIT    470.63     0  01:53      1.09    0.59    0.62
  HS02004792HS02004799 CONDUIT    430.87     0  01:53      1.22    0.26    0.50
  HS02004788HS02004792 CONDUIT    248.73     0  01:54      1.29    0.16    0.28
  HS02004785HS02004788 CONDUIT    189.53     0  01:53      0.92    1.43    0.30
  HS02004777HS02004785 CONDUIT    189.41     0  01:53      0.59    0.23    0.46
  HS02004480HS02004478 CONDUIT    554.36     0  01:53      1.59    2.33    0.50
  HS02004479HS02004480 CONDUIT     83.70     0  01:53      0.37    0.08    0.59
  HS02004862HS02004870 CONDUIT     86.18     0  01:55      0.82    0.09    0.15
  HS02004848HS02004852 CONDUIT     40.37     0  01:54      0.54    0.05    0.11
  HS02004856HS02004862 CONDUIT     60.18     0  01:54      0.61    0.06    0.14
  HS02004852HS02004856 CONDUIT     40.43     0  01:55      0.35    0.05    0.17
  HS02004802HS02004478 CONDUIT    184.70     0  01:57      0.53    0.16    0.50
  HS02004478WS02006287 CONDUIT    735.63     0  01:54      2.18    0.21    0.38
  HS02004817HS02004807 CONDUIT    137.15     0  01:57      0.26    0.08    0.77
  HS02004807HS02004802 CONDUIT    183.95     0  01:56      0.47    0.35    0.56
  YS02001759YS02001757 CONDUIT    885.48     0  01:59      1.13    0.63    1.00
  YS02001762YS02001759 CONDUIT    424.09     0  01:55      0.54    0.49    1.00
  YS02001765YS02001762 CONDUIT    424.85     0  01:55      0.54    0.40    1.00
  YS02001770YS02001767 CONDUIT    425.36     0  01:55      0.54    1.68    1.00
  YS02001774YS02001770 CONDUIT    590.33     0  02:58      0.75    0.38    1.00
  YS02001779YS02001774 CONDUIT    590.54     0  02:58      0.75    0.30    1.00
  YS02001649YS02001757 CONDUIT    930.70     0  01:58      1.18    0.56    1.00
  YS02001767YS02001765 CONDUIT    425.62     0  01:55      0.54    0.54    1.00
  YS02006561YS02001783 CONDUIT   1083.98     0  01:52      2.26    0.56    1.00
  YS02001783YS02001784 CONDUIT   1083.22     0  01:52      2.15    1.49    1.00
  YS02001784YS02001785 CONDUIT   1083.81     0  01:52      2.16    2.52    1.00
  YS02001788YS02001790 CONDUIT   1061.26     0  01:51      2.60    0.78    1.00
  YS02001790YS02001791 CONDUIT   1096.18     0  01:51      3.16    1.19    1.00
  YS02001791YS02001793 CONDUIT   1004.15     0  01:51      6.07    0.43    1.00
  YS02001910YS02001907 CONDUIT    686.25     0  01:54      0.87    0.39    1.00
  YS02001786YS02001788 CONDUIT   1082.46     0  01:52      2.34    2.09    1.00
  YS02001915YS02001910 CONDUIT    685.83     0  01:54      0.87    0.34    1.00
  YS02001918YS02001915 CONDUIT    387.83     0  01:54      0.49    0.21    1.00
  YS02001923YS02001920 CONDUIT    384.78     0  01:54      0.82    0.17    1.00
  YS02001926YS02001923 CONDUIT    310.23     0  01:55      0.92    0.44    1.00
  YS02001929YS02001926 CONDUIT    277.89     0  01:54      0.98    0.13    1.00
  YS02001920YS02001918 CONDUIT    388.83     0  01:54      0.77    0.38    1.00
  YS02001629YS02163301 CONDUIT    217.58     0  01:46      0.28    0.27    1.00
  YS02001619YS02001622 CONDUIT    389.10     0  02:15      0.74    0.57    1.00
  YS02001622YS02001625 CONDUIT    388.77     0  02:16      0.49    0.21    1.00
  YS02001625YS02001629 CONDUIT    212.25     0  01:47      0.29    0.10    1.00
  YS02163301YS02001633 CONDUIT    221.63     0  01:46      0.28    0.21    1.00
  YS02163601YS02164001 CONDUIT    440.62     0  01:46      0.56    0.39    1.00
  YS02164001YS02001641 CONDUIT    443.34     0  01:46      0.56    0.61    1.00
  YS02001641YS02001644 CONDUIT    444.93     0  01:46      0.57    1.44    1.00
  YS02001647YS02001649 CONDUIT    661.57     0  01:47      0.84    0.35    1.00
  YS02006553YS02006556 CONDUIT    716.87     0  03:35      0.91    0.61    1.00
  YS02006556YS02006558 CONDUIT    717.10     0  03:35      0.91    0.57    1.00
  YSB6556YSB1171       CONDUIT     46.61     0  01:54      0.14    0.05    0.84
  YS02001907YS02006553 CONDUIT    716.97     0  03:35      0.80    0.84    1.00
  YS02006558YS02006561 CONDUIT   1116.42     0  01:52      3.95    2.47    1.00
  YS02001633YS02163601 CONDUIT    438.14     0  01:46      0.56    0.46    1.00
  YS02001644YS02001647 CONDUIT    662.05     0  01:47      0.84    0.39    1.00
  YS02001745YS02001748 CONDUIT    455.42     0  02:16      1.67    0.18    0.96
  YS02001748YS02001751 CONDUIT    455.54     0  02:16      1.21    0.23    1.00
  YS02001751YS02001754 CONDUIT    455.37     0  02:16      1.02    0.22    1.00
  YS02001754YS02001757 CONDUIT    454.31     0  02:16      0.58    0.18    1.00
  YS02001882YS02001884 CONDUIT     22.11     0  01:49      0.16    0.03    1.00
  YS02001884YS02001887 CONDUIT     42.72     0  01:48      0.12    0.06    1.00
  YS02001890YS02001895 CONDUIT    544.14     0  01:52      0.69    0.25    1.00
  YS02001895YS02001898 CONDUIT    544.13     0  01:52      0.69    0.94    1.00
  YS02001898YS02001901 CONDUIT    545.31     0  01:52      0.69    0.35    1.00
  YS02001901YS02001904 CONDUIT    544.42     0  01:52      0.69    0.84    1.00
  YS02001904YS02001907 CONDUIT    544.39     0  01:52      0.69    0.19    1.00
  YS02001887YS02001890 CONDUIT    677.50     0  02:14      0.86    1.16    1.00
  YS02001652YS02001649 CONDUIT    525.81     0  02:12      0.71    0.26    1.00
  YS02001655YS02001652 CONDUIT    524.40     0  02:13      1.09    0.25    1.00
  YS02001658YS02001655 CONDUIT    523.95     0  02:13      1.41    0.22    1.00
  YS02001661YS02001658 CONDUIT    526.16     0  02:04      1.78    0.21    1.00
  YS02001664YS02001661 CONDUIT    766.87     0  02:00      1.69    0.24    0.76
  YSB1154YSB6556       CONDUIT     46.64     0  01:52      0.16    0.08    0.75
  YSB1174YSB1171       CONDUIT     38.36     0  01:50      0.11    0.06    0.87
  YSB1171HS02004479    CONDUIT     83.76     0  01:53      0.54    0.06    0.70
  HS02004881HS02006253 CONDUIT    153.29     0  01:54      2.03    0.03    0.54
  YS02001793JiankangQianchi CONDUIT   1002.92     0  01:52     16.37    0.08    1.00
  YS02001757CaochengTiaoxuchi CONDUIT   2161.13     0  02:00      3.72    0.95    1.00
  WSF200WS02003060     CONDUIT    953.42     0  01:55      2.19    0.21    0.45
  1                    CONDUIT   1354.34     0  01:59      3.60    0.47    0.48
  CC-Pump-1            PUMP       200.00     0  01:33              1.00
  CC-Pump-2            PUMP       200.00     0  01:50              1.00
  JK-Pump-1            PUMP       300.00     0  00:00              1.00
  JK-Pump-2            PUMP       683.00     0  02:00              1.00
  XR-Pump-1            PUMP        95.00     0  00:00              1.00
  XR-Pump-2            PUMP        95.00     0  00:00              1.00
  XR-Pump-3            PUMP        95.00     0  00:00              1.00
  XR-Pump-4            PUMP        95.00     0  00:00              1.00
  
  
  ***************************
  Flow Classification Summary
  ***************************
  
  -------------------------------------------------------------------------------------
                      Adjusted    ---------- Fraction of Time in Flow Class ---------- 
                       /Actual         Up    Down  Sub   Sup   Up    Down  Norm  Inlet 
  Conduit               Length    Dry  Dry   Dry   Crit  Crit  Crit  Crit  Ltd   Ctrl  
  -------------------------------------------------------------------------------------
  WS02003066WSF200        1.00   0.01  0.02  0.00  0.00  0.97  0.00  0.00  0.39  0.00
  WS02006287WS02006284    1.00   0.03  0.01  0.00  0.65  0.31  0.00  0.00  0.63  0.00
  WS02006284WS02006280    1.00   0.04  0.00  0.00  0.00  0.00  0.00  0.96  0.00  0.00
  WS02006280WS02006229    1.00   0.04  0.00  0.00  0.03  0.04  0.00  0.89  0.03  0.00
  WS02006229WS02006228    1.00   0.00  0.00  0.00  1.00  0.00  0.00  0.00  0.00  0.00
  WS02006256WS02006235    1.00   0.00  0.00  0.00  1.00  0.00  0.00  0.00  0.00  0.00
  WS02006253WS02006251    1.00   0.02  0.02  0.00  0.96  0.00  0.01  0.00  0.00  0.00
  WS02006252WS02006251    1.00   0.06  0.00  0.00  0.24  0.00  0.70  0.00  0.00  0.00
  WS02006251WS02006249    1.00   0.00  0.00  0.00  1.00  0.00  0.00  0.00  0.16  0.00
  WS02006249WS02006248    1.00   0.00  0.01  0.00  0.94  0.00  0.05  0.00  0.00  0.00
  WS02006248WS02006247    1.00   0.01  0.00  0.00  0.99  0.00  0.00  0.00  0.07  0.00
  WS02006247WS02006245    1.00   0.00  0.00  0.00  0.99  0.00  0.00  0.00  0.00  0.00
  WS02006245WS02006243    1.00   0.00  0.00  0.00  0.97  0.00  0.00  0.03  0.00  0.00
  WS02006243WS02006242    1.00   0.00  0.00  0.00  1.00  0.00  0.00  0.00  0.15  0.00
  WS02006242WS02006240    1.00   0.00  0.00  0.00  0.99  0.00  0.00  0.00  0.00  0.00
  WS02006240WS02006239    1.00   0.00  0.00  0.00  0.97  0.00  0.00  0.03  0.01  0.00
  WS02006239WS02006238    1.00   0.00  0.00  0.00  1.00  0.00  0.00  0.00  0.08  0.00
  WS02006238WS02006235    1.00   0.00  0.00  0.00  1.00  0.00  0.00  0.00  0.00  0.00
  WS02006235WS02006234    1.00   0.00  0.00  0.00  0.98  0.00  0.02  0.00  0.00  0.00
  WS02006234WS02006232    1.00   0.00  0.00  0.00  1.00  0.00  0.00  0.00  0.04  0.00
  WS02006232WS02006231    1.00   0.00  0.00  0.00  1.00  0.00  0.00  0.00  0.00  0.00
  WS02006231WS02006230    1.00   0.00  0.00  0.00  0.79  0.00  0.21  0.00  0.00  0.00
  WS02006230WS02006229    1.00   0.00  0.00  0.00  1.00  0.00  0.00  0.00  0.00  0.00
  WS02006228WS02006109    1.00   0.00  0.00  0.00  1.00  0.00  0.00  0.00  0.00  0.00
  WS02006116WS02004401    1.00   0.01  0.00  0.00  0.99  0.00  0.00  0.00  0.00  0.00
  WS02006115WS02006116    1.00   0.01  0.00  0.00  0.99  0.00  0.00  0.00  0.00  0.00
  WS02006113WS02006111    1.00   0.01  0.00  0.00  0.08  0.91  0.00  0.00  0.12  0.00
  WS02006112WS02006115    1.00   0.01  0.00  0.00  0.99  0.00  0.00  0.00  0.00  0.00
  WS02006111WS02006112    1.00   0.01  0.00  0.00  0.99  0.00  0.00  0.00  0.77  0.00
  WS02006110WS02006113    1.00   0.00  0.00  0.00  0.99  0.00  0.00  0.00  0.00  0.00
  WS02006109WS02006110    1.00   0.00  0.00  0.00  0.99  0.00  0.00  0.00  0.00  0.00
  WS02004411WS02004412    1.00   0.02  0.00  0.00  0.98  0.00  0.00  0.00  0.00  0.00
  WS02004401WS02004402    1.00   0.01  0.00  0.00  0.99  0.00  0.00  0.00  0.00  0.00
  WS02004413WS02003067    1.00   0.02  0.01  0.00  0.00  0.00  0.98  0.00  0.00  0.00
  WS02004412WS02004413    1.00   0.02  0.00  0.00  0.98  0.00  0.00  0.00  0.01  0.00
  WS02004410WS02004411    1.00   0.02  0.00  0.00  0.98  0.00  0.00  0.00  0.00  0.00
  WS02004409WS02004410    1.00   0.02  0.00  0.00  0.98  0.00  0.00  0.00  0.02  0.00
  WS02004407WS02004409    1.00   0.02  0.00  0.00  0.98  0.00  0.00  0.00  0.95  0.00
  WS02004406WS02004407    1.00   0.00  0.01  0.00  0.98  0.00  0.00  0.00  0.00  0.00
  WS02004405WS02004406    1.00   0.00  0.00  0.00  1.00  0.00  0.00  0.00  0.00  0.00
  WS02004404WS02004405    1.00   0.00  0.00  0.00  1.00  0.00  0.00  0.00  0.00  0.00
  WS02004403WS02004404    1.00   0.00  0.01  0.00  0.99  0.00  0.00  0.00  0.00  0.00
  WS02004402WS02004403    1.00   0.01  0.00  0.00  0.99  0.00  0.00  0.00  0.00  0.00
  WS02004139WS02001211    1.00   0.00  0.00  0.00  1.00  0.00  0.00  0.00  0.00  0.00
  WS02004138WS02004139    1.00   0.00  0.00  0.00  1.00  0.00  0.00  0.00  1.00  0.00
  WS02003067WS02003066    1.00   0.02  0.00  0.00  0.97  0.00  0.00  0.00  0.00  0.00
  WS02001213WS02003059    1.00   0.00  0.00  0.00  1.00  0.00  0.00  0.00  0.00  0.00
  WS02001212WS02001213    1.00   0.00  0.00  0.00  0.94  0.00  0.06  0.00  0.00  0.00
  WS02001211WS02001212    1.00   0.00  0.00  0.00  1.00  0.00  0.00  0.00  0.00  0.00
  WS02003072WS02003073    1.00   0.00  0.00  0.00  0.00  0.00  0.00  1.00  0.00  0.00
  WS02003069WS02003072    1.00   0.00  0.00  0.00  1.00  0.00  0.00  0.00  0.06  0.00
  WS02003060WS02003069    1.00   0.00  0.00  0.00  0.99  0.01  0.00  0.00  0.05  0.00
  WS02003059WS02003060    1.00   0.00  0.00  0.00  1.00  0.00  0.00  0.00  0.01  0.00
  HS02004901HS02004770    1.00   0.04  0.00  0.00  0.96  0.00  0.00  0.00  0.00  0.00
  HS02004876HS02004881    1.00   0.01  0.00  0.00  0.90  0.10  0.00  0.00  0.00  0.00
  HS02004870HS02004876    1.00   0.00  0.00  0.00  0.99  0.00  0.00  0.00  0.95  0.00
  HS02004842HS02004848    1.00   0.00  0.04  0.00  0.96  0.00  0.00  0.00  0.56  0.00
  HS02004837HS02004842    1.00   0.00  0.00  0.00  1.00  0.00  0.00  0.00  0.11  0.00
  HS02004830HS02004837    1.00   0.00  0.00  0.00  1.00  0.00  0.00  0.00  0.99  0.00
  HS02004824HS02004830    1.00   0.00  0.00  0.00  1.00  0.00  0.00  0.00  0.03  0.00
  HS02004817HS02004824    1.00   0.00  0.00  0.00  1.00  0.00  0.00  0.00  0.92  0.00
  HS02004770HS02004777    1.00   0.00  0.04  0.00  0.96  0.00  0.00  0.00  0.02  0.00
  HS02004799HS02004480    1.00   0.00  0.01  0.00  0.96  0.00  0.03  0.00  0.00  0.00
  HS02004792HS02004799    1.00   0.00  0.00  0.00  1.00  0.00  0.00  0.00  0.98  0.00
  HS02004788HS02004792    1.00   0.00  0.00  0.00  1.00  0.00  0.00  0.00  0.98  0.00
  HS02004785HS02004788    1.00   0.00  0.00  0.00  1.00  0.00  0.00  0.00  0.00  0.00
  HS02004777HS02004785    1.00   0.00  0.00  0.00  1.00  0.00  0.00  0.00  0.11  0.00
  HS02004480HS02004478    1.00   0.04  0.00  0.00  0.69  0.00  0.00  0.27  0.00  0.00
  HS02004479HS02004480    1.00   0.01  0.00  0.00  0.99  0.00  0.00  0.00  0.11  0.00
  HS02004862HS02004870    1.00   0.00  0.00  0.00  1.00  0.00  0.00  0.00  0.03  0.00
  HS02004848HS02004852    1.00   0.04  0.00  0.00  0.96  0.00  0.00  0.00  0.79  0.00
  HS02004856HS02004862    1.00   0.00  0.04  0.00  0.96  0.00  0.00  0.00  0.84  0.00
  HS02004852HS02004856    1.00   0.04  0.00  0.00  0.96  0.00  0.00  0.00  0.77  0.00
  HS02004802HS02004478    1.00   0.04  0.00  0.00  0.96  0.00  0.00  0.00  0.02  0.00
  HS02004478WS02006287    1.00   0.04  0.00  0.00  0.77  0.18  0.00  0.00  0.62  0.00
  HS02004817HS02004807    1.00   0.00  0.04  0.00  0.96  0.00  0.00  0.00  0.01  0.00
  HS02004807HS02004802    1.00   0.04  0.00  0.00  0.96  0.00  0.00  0.00  0.00  0.00
  YS02001759YS02001757    1.00   0.00  0.00  0.00  1.00  0.00  0.00  0.00  0.15  0.00
  YS02001762YS02001759    1.00   0.00  0.00  0.00  1.00  0.00  0.00  0.00  0.02  0.00
  YS02001765YS02001762    1.00   0.00  0.00  0.00  1.00  0.00  0.00  0.00  0.13  0.00
  YS02001770YS02001767    1.00   0.00  0.00  0.00  1.00  0.00  0.00  0.00  0.00  0.00
  YS02001774YS02001770    1.00   0.00  0.04  0.00  0.96  0.00  0.00  0.00  0.02  0.00
  YS02001779YS02001774    1.00   0.00  0.00  0.00  1.00  0.00  0.00  0.00  0.17  0.00
  YS02001649YS02001757    1.00   0.00  0.00  0.00  1.00  0.00  0.00  0.00  0.15  0.00
  YS02001767YS02001765    1.00   0.00  0.00  0.00  1.00  0.00  0.00  0.00  0.00  0.00
  YS02006561YS02001783    1.00   0.05  0.00  0.00  0.37  0.58  0.00  0.00  0.43  0.00
  YS02001783YS02001784    1.00   0.00  0.05  0.00  0.95  0.00  0.00  0.00  0.00  0.00
  YS02001784YS02001785    1.00   0.00  0.00  0.00  1.00  0.00  0.00  0.00  0.16  0.00
  YS02001788YS02001790    1.00   0.00  0.00  0.00  0.43  0.57  0.00  0.00  0.36  0.00
  YS02001790YS02001791    1.00   0.00  0.00  0.00  0.40  0.60  0.00  0.00  0.42  0.00
  YS02001791YS02001793    1.00   0.00  0.00  0.00  0.43  0.57  0.00  0.00  0.02  0.00
  YS02001910YS02001907    1.00   0.00  0.00  0.00  0.99  0.00  0.00  0.01  0.12  0.00
  YS02001786YS02001788    1.00   0.00  0.00  0.00  0.42  0.58  0.00  0.00  0.00  0.00
  YS02001915YS02001910    1.00   0.00  0.00  0.00  0.99  0.01  0.00  0.00  0.13  0.00
  YS02001918YS02001915    1.00   0.00  0.00  0.00  0.99  0.01  0.00  0.00  0.50  0.00
  YS02001923YS02001920    1.00   0.00  0.00  0.00  1.00  0.00  0.00  0.00  0.74  0.00
  YS02001926YS02001923    1.00   0.00  0.02  0.00  0.21  0.00  0.76  0.00  0.00  0.00
  YS02001929YS02001926    1.00   0.00  0.04  0.00  0.96  0.00  0.00  0.00  0.65  0.00
  YS02001920YS02001918    1.00   0.00  0.00  0.00  1.00  0.00  0.00  0.00  0.00  0.00
  YS02001629YS02163301    1.00   0.04  0.00  0.00  0.96  0.00  0.00  0.00  0.00  0.00
  YS02001619YS02001622    1.00   0.04  0.00  0.00  0.96  0.00  0.00  0.00  0.00  0.00
  YS02001622YS02001625    1.00   0.04  0.00  0.00  0.96  0.00  0.00  0.00  0.03  0.00
  YS02001625YS02001629    1.00   0.04  0.01  0.00  0.94  0.00  0.01  0.00  0.00  0.00
  YS02163301YS02001633    1.00   0.00  0.04  0.00  0.96  0.00  0.00  0.00  0.00  0.00
  YS02163601YS02164001    1.00   0.00  0.02  0.00  0.98  0.00  0.00  0.00  0.00  0.00
  YS02164001YS02001641    1.00   0.00  0.02  0.00  0.98  0.00  0.00  0.00  0.06  0.00
  YS02001641YS02001644    1.00   0.00  0.00  0.00  1.00  0.00  0.00  0.00  0.00  0.00
  YS02001647YS02001649    1.00   0.00  0.04  0.00  0.96  0.00  0.00  0.00  0.01  0.00
  YS02006553YS02006556    1.00   0.01  0.00  0.00  0.99  0.00  0.00  0.00  0.03  0.00
  YS02006556YS02006558    1.00   0.00  0.00  0.00  1.00  0.00  0.00  0.00  0.00  0.00
  YSB6556YSB1171          1.00   0.02  0.02  0.00  0.97  0.00  0.00  0.00  0.00  0.00
  YS02001907YS02006553    1.00   0.00  0.01  0.00  0.99  0.00  0.00  0.00  0.00  0.00
  YS02006558YS02006561    1.00   0.05  0.00  0.00  0.21  0.75  0.00  0.00  0.43  0.00
  YS02001633YS02163601    1.00   0.00  0.00  0.00  1.00  0.00  0.00  0.00  0.15  0.00
  YS02001644YS02001647    1.00   0.00  0.04  0.00  0.96  0.00  0.00  0.00  0.00  0.00
  YS02001745YS02001748    1.00   0.00  0.00  0.00  0.91  0.01  0.00  0.08  0.01  0.00
  YS02001748YS02001751    1.00   0.00  0.00  0.00  0.98  0.02  0.00  0.00  0.14  0.00
  YS02001751YS02001754    1.00   0.00  0.00  0.00  0.95  0.00  0.00  0.05  0.01  0.00
  YS02001754YS02001757    1.00   0.00  0.00  0.00  1.00  0.00  0.00  0.00  0.17  0.00
  YS02001882YS02001884    1.00   0.04  0.00  0.00  0.96  0.00  0.00  0.00  0.00  0.00
  YS02001884YS02001887    1.00   0.02  0.01  0.00  0.97  0.00  0.00  0.00  0.00  0.00
  YS02001890YS02001895    1.00   0.00  0.04  0.00  0.96  0.00  0.00  0.00  0.00  0.00
  YS02001895YS02001898    1.00   0.04  0.00  0.00  0.95  0.00  0.01  0.00  0.00  0.00
  YS02001898YS02001901    1.00   0.04  0.00  0.00  0.96  0.00  0.00  0.00  0.01  0.00
  YS02001901YS02001904    1.00   0.04  0.00  0.00  0.96  0.00  0.00  0.00  0.00  0.00
  YS02001904YS02001907    1.00   0.00  0.04  0.00  0.96  0.00  0.00  0.00  0.00  0.00
  YS02001887YS02001890    1.00   0.00  0.00  0.00  0.99  0.00  0.01  0.00  0.00  0.00
  YS02001652YS02001649    1.00   0.00  0.00  0.00  1.00  0.00  0.00  0.00  0.15  0.00
  YS02001655YS02001652    1.00   0.00  0.00  0.00  0.95  0.00  0.00  0.05  0.01  0.00
  YS02001658YS02001655    1.00   0.00  0.04  0.00  0.94  0.02  0.00  0.00  0.02  0.00
  YS02001661YS02001658    1.00   0.04  0.00  0.00  0.91  0.05  0.00  0.00  0.01  0.00
  YS02001664YS02001661    1.00   0.04  0.00  0.00  0.92  0.05  0.00  0.00  0.10  0.00
  YSB1154YSB6556          1.00   0.04  0.00  0.00  0.96  0.00  0.00  0.00  0.01  0.00
  YSB1174YSB1171          1.00   0.02  0.01  0.00  0.97  0.00  0.00  0.00  0.00  0.00
  YSB1171HS02004479       1.00   0.01  0.00  0.00  0.98  0.00  0.00  0.00  0.10  0.00
  HS02004881HS02006253    1.00   0.02  0.00  0.00  0.90  0.01  0.00  0.08  0.77  0.00
  YS02001793JiankangQianchi    1.00   0.00  0.00  0.00  0.59  0.40  0.00  0.00  0.27  0.00
  YS02001757CaochengTiaoxuchi    1.00   0.00  0.06  0.00  0.91  0.03  0.00  0.00  0.00  0.00
  WSF200WS02003060        1.00   0.00  0.01  0.00  0.97  0.02  0.00  0.00  0.24  0.00
  1                       1.00   0.00  0.00  0.00  0.00  1.00  0.00  0.00  0.54  0.00
  
  
  *************************
  Conduit Surcharge Summary
  *************************
  
  ----------------------------------------------------------------------------
                                                           Hours        Hours 
                         --------- Hours Full --------   Above Full   Capacity
  Conduit                Both Ends  Upstream  Dnstream   Normal Flow   Limited
  ----------------------------------------------------------------------------
  WS02006229WS02006228        5.16      5.20      5.16      5.68         5.16
  WS02006256WS02006235        6.56      6.57      7.22      5.27         0.01
  WS02006253WS02006251        3.89      3.89      4.02      0.01         0.03
  WS02006252WS02006251        3.33      3.33      4.27      3.87         0.01
  WS02006251WS02006249        3.92      3.92      4.09      3.03         2.89
  WS02006249WS02006248        3.96      3.97      4.09      5.30         0.01
  WS02006248WS02006247        4.07      4.07      4.45      0.01         0.01
  WS02006247WS02006245        4.43      4.50      4.43      5.60         4.04
  WS02006245WS02006243        4.48      4.48      4.65      0.46         0.64
  WS02006243WS02006242        4.74      4.74      5.12      0.01         0.01
  WS02006242WS02006240        5.05      5.05      5.16      3.31         0.01
  WS02006240WS02006239        5.05      5.06      5.06      1.84         1.28
  WS02006239WS02006238        5.11      5.13      5.13      1.94         1.50
  WS02006238WS02006235        5.10      5.10      5.18      0.01         0.05
  WS02006235WS02006234        4.99      4.99      5.08      6.52         0.02
  WS02006234WS02006232        5.03      5.03      5.19      1.60         1.57
  WS02006232WS02006231        3.95      3.95      5.19      1.80         0.01
[...]
  YS02001779YS02001774        6.13      6.13      6.19      0.01         0.01
  YS02001649YS02001757        6.19      6.19      6.23      0.01         0.01
  YS02001767YS02001765        6.18      6.18      6.18      0.01         0.01
  YS02006561YS02001783        1.64      1.64      1.88      0.01         0.01
  YS02001783YS02001784        1.84      1.88      1.84      2.15         1.84
  YS02001784YS02001785        1.74      1.84      1.74      2.90         1.73
  YS02001788YS02001790        1.68      1.68      2.43      0.01         0.01
  YS02001790YS02001791        2.43      2.43      2.53      1.82         1.76
  YS02001791YS02001793        2.53      2.53      2.88      0.01         0.01
  YS02001910YS02001907        1.92      1.92      2.37      0.01         0.01
  YS02001786YS02001788        1.68      1.74      1.68      2.56         1.68
  YS02001915YS02001910        1.78      1.78      1.92      0.01         0.01
  YS02001918YS02001915        1.62      1.62      1.78      0.01         0.01
  YS02001923YS02001920        1.46      1.46      1.65      0.01         0.01
  YS02001926YS02001923        0.01      0.01      0.01      0.01         0.01
  YS02001929YS02001926        0.01      0.01      0.01      0.01         0.01
  YS02001920YS02001918        1.62      1.62      1.65      0.01         0.01
  YS02001629YS02163301        6.16      6.16      6.17      0.01         0.01
  YS02001619YS02001622        6.09      6.09      6.09      0.01         0.03
  YS02001622YS02001625        6.09      6.09      6.15      0.01         0.01
  YS02001625YS02001629        6.09      6.09      6.15      0.01         0.01
  YS02163301YS02001633        6.17      6.17      6.18      0.01         0.01
  YS02163601YS02164001        6.17      6.17      6.20      0.01         0.01
  YS02164001YS02001641        6.17      6.17      6.18      0.01         0.02
  YS02001641YS02001644        6.18      6.18      6.18      2.38         2.35
  YS02001647YS02001649        6.15      6.15      6.19      0.01         0.01
  YS02006553YS02006556        2.10      2.10      2.44      0.01         0.01
  YS02006556YS02006558        2.20      2.20      2.51      0.01         0.01
  YSB6556YSB1171              0.01      0.01      0.30      0.01         0.01
  YS02001907YS02006553        2.94      2.94      3.14      0.01         0.01
  YS02006558YS02006561        1.72      2.07      1.72      2.78         1.72
  YS02001633YS02163601        6.17      6.17      6.20      0.01         0.01
  YS02001644YS02001647        6.15      6.15      6.18      0.01         0.01
  YS02001745YS02001748        0.01      0.01      6.05      0.01         0.01
  YS02001748YS02001751        6.06      6.06      6.08      0.01         0.01
  YS02001751YS02001754        6.08      6.08      6.13      0.01         0.01
  YS02001754YS02001757        6.15      6.15      6.23      0.01         0.01
  YS02001882YS02001884        1.79      1.79      1.80      0.01         0.01
  YS02001884YS02001887        1.84      1.84      1.86      0.01         0.01
  YS02001890YS02001895        1.76      1.76      1.93      0.01         0.01
  YS02001895YS02001898        1.75      1.75      1.76      0.01         0.01
  YS02001898YS02001901        1.77      1.77      1.83      0.01         0.01
  YS02001901YS02001904        1.82      1.82      1.83      0.01         0.01
  YS02001904YS02001907        1.82      1.82      2.48      0.01         0.01
  YS02001887YS02001890        1.88      1.88      1.90      0.52         0.01
  YS02001652YS02001649        6.15      6.15      6.19      0.01         0.01
  YS02001655YS02001652        6.10      6.10      6.15      0.01         0.01
  YS02001658YS02001655        6.06      6.06      6.10      0.01         0.01
  YS02001661YS02001658        0.17      0.17      6.06      0.01         0.01
  YS02001664YS02001661        0.01      0.01      1.53      0.01         0.01
  HS02004881HS02006253        0.01      0.01      2.91      0.01         0.01
  YS02001793JiankangQianchi        2.80      2.80      4.07      0.01         0.01
  YS02001757CaochengTiaoxuchi        5.63      5.63      6.23      0.01         0.01
  
  
  ***************
  Pumping Summary
  ***************
  
  ---------------------------------------------------------------------------------------------------------
                                                  Min       Avg       Max     Total     Power    % Time Off
                        Percent   Number of      Flow      Flow      Flow    Volume     Usage    Pump Curve
  Pump                 Utilized   Start-Ups       LPS       LPS       LPS  10^6 ltr     Kw-hr    Low   High
  ---------------------------------------------------------------------------------------------------------
  CC-Pump-1               80.91           1      0.00    187.79    200.00     4.299      6.62    0.0    5.7
  CC-Pump-2               63.82           6      0.00    116.97    200.00     2.640      4.67    0.0    3.8
  JK-Pump-1               74.46           4      0.00    231.02    300.00     4.793     68.63    0.0    0.0
  JK-Pump-2               59.57           3      0.00    442.15    683.00     7.688     95.58    0.0   98.1
  XR-Pump-1               97.87           2      0.00     94.50     95.00     2.565     20.28    0.0    0.0
  XR-Pump-2               97.87           2      0.00     92.04     95.00     2.508     19.18    0.0    0.0
  XR-Pump-3               97.87           2      0.00     92.04     95.00     2.508     19.18    0.0    0.0
  XR-Pump-4               97.87           2      0.00     92.04     95.00     2.508     19.18    0.0    0.0
  
  
  ***************************
  Link Pollutant Load Summary
  ***************************
  
  ------------------------------------------------------------------------------------------
                                 COD            SS            TN            TP         NH4-N
  Link                            kg            kg            kg            kg            kg
  ------------------------------------------------------------------------------------------
  WS02003066WSF200          1248.970      2401.737        29.463         2.433        15.122
  WS02006287WS02006284       438.097       854.561        12.585         1.181         6.762
  WS02006284WS02006280       438.596       855.363        12.633         1.187         6.792
  WS02006280WS02006229       438.598       855.383        12.631         1.186         6.791
  WS02006229WS02006228      1243.790      2391.946        28.810         2.343        14.706
  WS02006256WS02006235       236.855       446.479         5.103         0.392         2.563
  WS02006253WS02006251        86.540       173.343         1.883         0.141         0.931
  WS02006252WS02006251       712.179      1363.299        13.656         0.936         6.573
  WS02006251WS02006249       787.706      1515.901        15.330         1.063         7.406
  WS02006249WS02006248       581.844      1114.788        11.410         0.792         5.525
  WS02006248WS02006247       578.891      1109.116        11.352         0.788         5.497
  WS02006247WS02006245       578.116      1107.706        11.335         0.786         5.488
  WS02006245WS02006243       577.132      1105.952        11.310         0.784         5.475
  WS02006243WS02006242       576.429      1104.740        11.294         0.783         5.467
  WS02006242WS02006240       575.397      1102.905        11.267         0.781         5.453
  WS02006240WS02006239       574.442      1101.167        11.244         0.779         5.442
  WS02006239WS02006238       573.577      1099.415        11.256         0.782         5.452
  WS02006238WS02006235       573.366      1098.889        11.272         0.785         5.463
  WS02006235WS02006234       807.785      1541.154        16.252         1.163         7.953
  WS02006234WS02006232       807.256      1540.167        16.249         1.163         7.954
  WS02006232WS02006231       806.631      1538.995        16.235         1.162         7.947
  WS02006231WS02006230       805.827      1537.525        16.213         1.160         7.935
  WS02006230WS02006229       805.935      1537.829        16.214         1.160         7.935
  WS02006228WS02006109      1243.090      2390.663        28.792         2.341        14.696
  WS02006116WS02004401      1262.562      2426.799        29.744         2.452        15.259
  WS02006115WS02006116      1263.807      2429.051        29.780         2.455        15.278
  WS02006113WS02006111      1248.875      2399.307        29.535         2.437        15.168
  WS02006112WS02006115      1265.056      2431.272        29.822         2.459        15.301
  WS02006111WS02006112      1248.656      2398.988        29.521         2.435        15.159
  WS02006110WS02006113      1249.690      2400.785        29.558         2.439        15.180
  WS02006109WS02006110      1250.883      2402.937        29.597         2.443        15.201
  WS02004411WS02004412      1252.642      2408.416        29.571         2.442        15.180
  WS02004401WS02004402      1261.316      2424.563        29.705         2.448        15.237
  WS02004413WS02003067      1249.970      2403.631        29.482         2.434        15.131
  WS02004412WS02004413      1251.236      2405.878        29.530         2.439        15.158
  WS02004410WS02004411      1253.923      2410.761        29.604         2.445        15.198
  WS02004409WS02004410      1255.137      2412.965        29.638         2.448        15.216
  WS02004407WS02004409      1256.284      2415.064        29.666         2.450        15.230
  WS02004406WS02004407      1256.785      2416.027        29.671         2.450        15.232
  WS02004405WS02004406      1258.342      2418.849        29.721         2.455        15.259
  WS02004404WS02004405      1259.494      2421.028        29.727         2.454        15.259
  WS02004403WS02004404      1259.085      2420.532        29.639         2.442        15.202
  WS02004402WS02004403      1260.129      2422.411        29.672         2.446        15.220
  WS02004139WS02001211      1354.286      2295.642       101.508        12.243        62.147
  WS02004138WS02004139      1360.631      2306.342       101.981        12.300        62.436
  WS02003067WS02003066      1249.177      2402.123        29.468         2.433        15.125
  WS02001213WS02003059      1387.289      2347.237       104.977        12.682        64.329
  WS02001212WS02001213      1396.292      2362.303       105.679        12.767        64.760
  WS02001211WS02001212      1398.641      2366.149       105.881        12.792        64.885
  WS02003072WS02003073      2735.270      4905.677       144.419        16.369        85.707
  WS02003069WS02003072      2740.603      4914.498       144.844        16.421        85.969
  WS02003060WS02003069      2743.397      4919.443       144.978        16.435        86.048
  WS02003059WS02003060      1384.012      2341.625       104.755        12.655        64.194
  HS02004901HS02004770        19.399        38.441         0.369         0.028         0.174
  HS02004876HS02004881        64.843       131.156         1.382         0.100         0.674
  HS02004870HS02004876        49.302        99.619         1.094         0.080         0.537
  HS02004842HS02004848         9.278        18.137         0.191         0.013         0.089
  HS02004837HS02004842        13.925        25.525         0.662         0.072         0.384
  HS02004830HS02004837        81.309       145.733         4.858         0.568         2.931
  HS02004824HS02004830        82.102       147.038         4.931         0.577         2.976
  HS02004817HS02004824       118.564       221.807         5.666         0.624         3.333
  HS02004770HS02004777        73.684       147.825         1.507         0.104         0.700
  HS02004799HS02004480       235.086       460.644         5.679         0.484         2.882
  HS02004792HS02004799       214.145       417.335         5.330         0.464         2.722
  HS02004788HS02004792       116.317       227.343         3.333         0.303         1.755
  HS02004785HS02004788        75.102       150.092         1.653         0.123         0.793
  HS02004777HS02004785        74.433       149.019         1.592         0.115         0.755
  HS02004480HS02004478       294.429       579.937         6.703         0.559         3.370
  HS02004479HS02004480        62.983       125.169         1.335         0.113         0.680
  HS02004862HS02004870        37.532        74.850         0.862         0.066         0.425
  HS02004848HS02004852        15.822        31.381         0.320         0.022         0.149
  HS02004856HS02004862        25.851        52.198         0.514         0.035         0.242
  HS02004852HS02004856        15.835        31.404         0.320         0.022         0.149
  HS02004802HS02004478       144.597       276.116         5.947         0.629         3.432
  HS02004478WS02006287       438.244       854.772        12.602         1.183         6.773
  HS02004817HS02004807       117.208       219.667         5.527         0.607         3.245
  HS02004807HS02004802       144.763       276.369         5.979         0.633         3.453
  YS02001759YS02001757       533.004      1012.864        10.366         0.724         5.048
  YS02001762YS02001759       207.253       389.784         4.310         0.301         2.124
  YS02001765YS02001762       208.431       393.100         4.350         0.305         2.146
  YS02001770YS02001767       211.334       401.750         4.229         0.283         2.056
  YS02001774YS02001770       356.819       701.195         6.909         0.460         3.342
  YS02001779YS02001774       355.808       699.278         6.965         0.470         3.384
  YS02001649YS02001757       403.042       745.516         7.981         0.560         3.826
  YS02001767YS02001765       210.337       397.817         4.400         0.309         2.172
  YS02006561YS02001783      1268.715      2395.583        26.144         1.930        12.936
  YS02001783YS02001784      1268.551      2395.304        26.138         1.929        12.933
  YS02001784YS02001785      1275.861      2407.018        26.849         2.018        13.378
  YS02001788YS02001790      1276.460      2407.976        26.925         2.028        13.426
  YS02001790YS02001791      1277.638      2409.918        27.039         2.042        13.497
  YS02001791YS02001793      1277.564      2409.759        27.035         2.042        13.495
  YS02001910YS02001907       564.034      1065.110        12.703         0.936         6.408
  YS02001786YS02001788      1276.068      2407.372        26.877         2.022        13.396
  YS02001915YS02001910       564.180      1065.352        12.662         0.930         6.381
  YS02001918YS02001915       276.469       501.238         6.817         0.586         3.580
  YS02001923YS02001920       252.264       460.226         4.808         0.341         2.337
  YS02001926YS02001923       249.476       455.336         4.687         0.328         2.267
  YS02001929YS02001926       247.643       452.132         4.611         0.320         2.222
  YS02001920YS02001918       273.130       494.102         6.741         0.581         3.542
  YS02001629YS02163301        88.766       157.631         1.876         0.123         0.880
  YS02001619YS02001622       259.372       485.216         5.243         0.348         2.461
  YS02001622YS02001625       258.390       483.675         5.218         0.346         2.450
  YS02001625YS02001629        86.015       152.129         1.834         0.120         0.858
  YS02163301YS02001633        93.576       167.074         1.953         0.130         0.918
  YS02163601YS02164001       528.748       976.018        10.159         0.734         4.883
  YS02164001YS02001641       528.631       975.805        10.146         0.733         4.875
  YS02001641YS02001644       529.637       977.486        10.158         0.734         4.880
  YS02001647YS02001649       490.364       910.149         9.711         0.684         4.633
  YS02006553YS02006556       787.855      1468.822        16.715         1.265         8.369
  YS02006556YS02006558       787.974      1469.039        16.680         1.259         8.345
  YSB6556YSB1171              36.523        72.736         0.718         0.059         0.359
  YS02001907YS02006553       787.946      1469.018        16.746         1.269         8.389
  YS02006558YS02006561      1268.693      2395.538        26.143         1.930        12.936
  YS02001633YS02163601       529.375       977.016        10.136         0.730         4.865
  YS02001644YS02001647       497.964       924.867         9.835         0.693         4.693
  YS02001745YS02001748       354.058       679.942         6.989         0.437         3.358
  YS02001748YS02001751       353.379       678.791         6.996         0.440         3.365
  YS02001751YS02001754       352.446       677.256         6.980         0.439         3.359
  YS02001754YS02001757       353.267       678.484         7.147         0.462         3.467
  YS02001882YS02001884         4.798         8.560         0.091         0.007         0.045
  YS02001884YS02001887         7.616        13.769         0.144         0.011         0.071
  YS02001890YS02001895       614.776      1175.446        11.360         0.858         5.543
  YS02001895YS02001898       614.624      1175.257        11.354         0.858         5.539
  YS02001898YS02001901       614.455      1174.897        11.351         0.858         5.538
  YS02001901YS02001904       614.122      1174.413        11.355         0.859         5.542
  YS02001904YS02001907       614.502      1174.944        11.416         0.866         5.580
  YS02001887YS02001890       669.053      1283.996        12.352         0.935         6.030
  YS02001652YS02001649       307.388       584.500         6.093         0.441         2.864
  YS02001655YS02001652       307.924       585.378         6.108         0.442         2.871
  YS02001658YS02001655       307.482       584.707         6.023         0.431         2.816
  YS02001661YS02001658       308.134       585.822         6.038         0.432         2.823
  YS02001664YS02001661       322.513       609.000         6.375         0.455         2.977
  YSB1154YSB6556              36.101        72.068         0.672         0.053         0.330
  YSB1174YSB1171              24.945        50.010         0.488         0.039         0.242
  YSB1171HS02004479           62.905       125.025         1.341         0.114         0.684
  HS02004881HS02006253        73.212       148.541         1.527         0.109         0.743
  YS02001793JiankangQianchi      1277.850      2410.173        27.043         2.043        13.499
  YS02001757CaochengTiaoxuchi       982.799      1857.697        19.246         1.319         9.289
  WSF200WS02003060          1248.538      2400.902        29.460         2.433        15.122
  1                         2741.435      4914.378       145.310        16.485        86.277
  CC-Pump-1                  435.222       832.176         8.364         0.573         4.027
  CC-Pump-2                  277.003       531.215         5.293         0.363         2.547
  JK-Pump-1                  369.900       702.409         7.787         0.591         3.890
  JK-Pump-2                  732.662      1406.269        14.673         1.074         7.220
  XR-Pump-1                  347.420       588.296        26.162         3.158        16.024
  XR-Pump-2                  338.996       574.778        25.374         3.060        15.533
  XR-Pump-3                  338.996       574.778        25.374         3.060        15.533
  XR-Pump-4                  338.996       574.778        25.374         3.060        15.533
  

  Analysis begun on:  Sun Jun 13 15:45:00 2021
  Analysis ended on:  Sun Jun 13 15:45:03 2021
  Total elapsed time: 00:00:03