
  EPA STORM WATER MANAGEMENT MODEL - VERSION 5.1 (Build 5.3.0.dev0)
  --------------------------------------------------------------

  WARNING 09: time series interval greater than recording interval for Rain Gage RG1
  WARNING 09: time series interval greater than recording interval for Rain Gage RG2
  WARNING 09: time series interval greater than recording interval for Rain Gage RG3
  WARNING 09: time series interval greater than recording interval for Rain Gage RG4
  
  *********************************************************
  NOTE: The summary statistics displayed in this report are
  based on results found at every computational time step,  
  not just on results from each reporting time step.
  *********************************************************
  
  ****************
  Analysis Options
  ****************
  Flow Units ............... CMS
  Process Models:
    Rainfall/Runoff ........ YES
    RDII ................... NO
    Snowmelt ............... NO
    Groundwater ............ NO
    Flow Routing ........... YES
    Ponding Allowed ........ YES
    Water Quality .......... NO
  Infiltration Method ...... HORTON
  Flow Routing Method ...... DYNWAVE
  Surcharge Method ......... EXTRAN
  Starting Date ............ 08/28/2015 00:00:00
  Ending Date .............. 08/28/2015 23:40:00
  Antecedent Dry Days ...... 0.0
  Report Time Step ......... 00:01:00
  Wet Time Step ............ 00:01:00
  Dry Time Step ............ 00:01:00
  Routing Time Step ........ 5.00 sec
  Variable Time Step ....... YES
  Maximum Trials ........... 8
  Number of Threads ........ 1
  Head Tolerance ........... 0.001500 m
  
  
  **************************        Volume         Depth
  Runoff Quantity Continuity     hectare-m            mm
  **************************     ---------       -------
  Total Precipitation ......         2.022        11.220
  Evaporation Loss .........         0.000         0.000
  Infiltration Loss ........         0.000         0.000
  Surface Runoff ...........         2.021        11.215
  Final Storage ............         0.015         0.083
  Continuity Error (%) .....        -0.691
  
  
  **************************        Volume        Volume
  Flow Routing Continuity        hectare-m      10^6 ltr
  **************************     ---------     ---------
  Dry Weather Inflow .......         0.758         7.576
  Wet Weather Inflow .......         2.021        20.209
  Groundwater Inflow .......         0.000         0.000
  RDII Inflow ..............         0.000         0.000
  External Inflow ..........         0.000         0.000
  External Outflow .........         0.995         9.955
  Flooding Loss ............         1.056        10.557
  Evaporation Loss .........         0.000         0.000
  Exfiltration Loss ........         0.000         0.000
  Initial Stored Volume ....         0.000         0.000
  Final Stored Volume ......         0.599         5.989
  Continuity Error (%) .....         4.618
  
  
  *************************
  Highest Continuity Errors
  *************************
  Node T2 (22.30%)
  Node T3 (16.17%)
  Node T4 (12.35%)
  Node T6 (12.09%)
  Node T5 (3.21%)
  
  
  ***************************
  Time-Step Critical Elements
  ***************************
  None
  
  
  ********************************
  Highest Flow Instability Indexes
  ********************************
  All links are stable.
  
  
  *************************
  Routing Time Step Summary
  *************************
  Minimum Time Step           :     4.50 sec
  Average Time Step           :     5.00 sec
  Maximum Time Step           :     5.00 sec
  Percent in Steady State     :     0.00
  Average Iterations per Step :     2.08
  Percent Not Converging      :     0.32
  
  
  ***************************
  Subcatchment Runoff Summary
  ***************************
  
  ------------------------------------------------------------------------------------------------------------------------------
                            Total      Total      Total      Total     Imperv       Perv      Total       Total     Peak  Runoff
                           Precip      Runon       Evap      Infil     Runoff     Runoff     Runoff      Runoff   Runoff   Coeff
  Subcatchment                 mm         mm         mm         mm         mm         mm         mm    10^6 ltr      CMS
  ------------------------------------------------------------------------------------------------------------------------------
  SC01                      17.28       0.00       0.00       0.00      17.39       0.00      17.39        5.74     9.39   1.006
  SC02                      11.30       0.00       0.00       0.00      11.30       0.00      11.30        2.57     2.99   1.000
  SC03                       8.46       0.00       0.00       0.00       8.48       0.00       8.48        1.53     1.64   1.003
  SC04                      11.30       0.00       0.00       0.00      11.21       0.00      11.21        0.77     0.48   0.992
  SC05                      17.28       0.00       0.00       0.00      17.37       0.00      17.37        2.71     4.15   1.005
  SC06                       5.10       0.00       0.00       0.00       4.98       0.00       4.98        1.62     0.80   0.976
  SC07                      11.30       0.00       0.00       0.00      11.22       0.00      11.22        0.53     0.33   0.993
  SC08                       8.46       0.00       0.00       0.00       8.42       0.00       8.42        2.36     1.69   0.995
  SC09                       5.10       0.00       0.00       0.00       5.03       0.00       5.03        0.35     0.25   0.986
  SC010                     17.28       0.00       0.00       0.00      17.32       0.00      17.32        2.03     2.60   1.002
  
  
  ******************
  Node Depth Summary
  ******************
  
  ---------------------------------------------------------------------------------
                                 Average  Maximum  Maximum  Time of Max    Reported
                                   Depth    Depth      HGL   Occurrence   Max Depth
  Node                 Type       Meters   Meters   Meters  days hr:min      Meters
  ---------------------------------------------------------------------------------
  J1                   JUNCTION     0.05     7.00    41.00     0  14:01        1.06
  J3                   JUNCTION     0.08     0.13    18.13     0  15:30        0.13
  CSO7                 JUNCTION     0.10     1.20    35.20     0  14:01        1.20
  J5                   JUNCTION     0.04     0.24    32.24     0  14:07        0.24
  CSO9                 JUNCTION     0.08     2.00    42.00     0  13:55        2.00
  J8                   JUNCTION     0.06     0.30    36.30     0  14:02        0.30
  CSO8                 JUNCTION     0.09     2.00    34.00     0  13:50        2.00
  J10                  JUNCTION     0.05     0.41    29.41     0  14:02        0.41
  J13                  JUNCTION     0.04     0.43    29.43     0  14:06        0.42
  J15                  JUNCTION     0.12     1.15    16.15     0  14:07        1.14
  J16                  JUNCTION     0.04     0.78    30.78     0  14:01        0.68
  CSO10                JUNCTION     0.08     1.00    31.00     0  13:55        1.00
  J12                  JUNCTION     0.15     0.41    26.41     0  14:03        0.41
  J4                   JUNCTION     0.09     1.44    34.44     0  14:05        0.75
  J6                   JUNCTION     0.04     0.07    25.07     0  15:56        0.07
  J2                   JUNCTION     0.05     0.08    25.08     0  14:54        0.08
  J19                  JUNCTION     0.10     0.17     8.17     0  14:04        0.17
  J9                   JUNCTION     0.07     0.11    29.11     0  15:40        0.11
  J14                  JUNCTION     0.08     0.15    20.15     0  16:11        0.15
  J17                  JUNCTION     0.04     0.07    20.07     0  16:40        0.07
  J7                   JUNCTION     0.05     0.23    39.23     0  14:10        0.23
  J11                  JUNCTION     0.04     0.30    31.30     0  14:18        0.30
  J18                  JUNCTION     0.03     0.16    29.16     0  14:28        0.16
  Out_to_WWTP          OUTFALL      0.10     0.17     6.17     0  14:05        0.17
  T5                   STORAGE      1.76     5.00    32.00     0  14:02        5.00
  T4                   STORAGE      2.04     5.00    32.00     0  14:27        5.00
  T6                   STORAGE      2.12     5.00    36.00     0  14:19        5.00
  T3                   STORAGE      1.88     4.40    26.40     0  17:48        4.40
  T2                   STORAGE      2.09     5.00    26.00     0  14:15        5.00
  T1                   STORAGE      1.51     5.00    15.00     0  14:03        5.00
  
  
  *******************
  Node Inflow Summary
  *******************
  
  -------------------------------------------------------------------------------------------------
                                  Maximum  Maximum                  Lateral       Total        Flow
                                  Lateral    Total  Time of Max      Inflow      Inflow     Balance
                                   Inflow   Inflow   Occurrence      Volume      Volume       Error
  Node                 Type           CMS      CMS  days hr:min    10^6 ltr    10^6 ltr     Percent
  -------------------------------------------------------------------------------------------------
  J1                   JUNCTION     4.167    4.167     0  14:01         3.8         3.8      -0.158
  J3                   JUNCTION     0.000    0.182     0  15:29           0        6.25       0.411
  CSO7                 JUNCTION     0.343    0.343     0  14:06         1.1         1.1       0.010
  J5                   JUNCTION     0.487    0.561     0  14:06        1.02        1.93       0.007
  CSO9                 JUNCTION     0.256    0.256     0  14:01       0.729       0.729      -0.010
  J8                   JUNCTION     0.827    0.942     0  14:01        3.45        4.13      -0.004
  CSO8                 JUNCTION     1.699    1.699     0  14:01         2.8         2.8      -0.067
  J10                  JUNCTION     1.653    2.134     0  14:01        2.28        4.32      -0.186
  J13                  JUNCTION     3.005    3.005     0  14:06        3.48        3.48      -0.102
  J15                  JUNCTION     0.000    9.743     0  14:01           0          15       0.465
  J16                  JUNCTION     9.412    9.412     0  14:01        6.81        6.81      -0.215
  CSO10                JUNCTION     2.606    2.606     0  14:01        2.31        2.31      -0.045
  J12                  JUNCTION     0.000    1.814     0  14:02           0        7.18       0.499
  J4                   JUNCTION     0.000    0.085     0  14:03           0       0.907       0.047
  J6                   JUNCTION     0.000    0.028     0  14:30           0        1.04       0.339
  J2                   JUNCTION     0.000    0.039     0  14:02           0        1.63       0.247
  J19                  JUNCTION     0.000    0.271     0  14:03           0        9.96       0.087
  J9                   JUNCTION     0.000    0.075     0  14:20           0         2.6       0.248
  J14                  JUNCTION     0.000    0.116     0  17:57           0        3.59       0.108
  J17                  JUNCTION     0.000    0.033     0  15:00           0        1.01       0.609
  J7                   JUNCTION     0.000    0.127     0  14:10           0       0.677       0.136
  J11                  JUNCTION     0.000    0.486     0  14:17           0        2.05       0.250
  J18                  JUNCTION     0.000    0.202     0  14:28           0       0.988       0.016
  Out_to_WWTP          OUTFALL      0.000    0.271     0  14:05           0        9.95       0.000
  T5                   STORAGE      0.000    3.903     0  14:01           0         3.8       3.318
  T4                   STORAGE      0.000    0.509     0  14:07           0        1.93      14.086
  T6                   STORAGE      0.000    0.875     0  14:02           0        4.13      13.752
  T3                   STORAGE      0.000    1.594     0  14:03           0        7.14      19.283
  T2                   STORAGE      0.000    2.734     0  14:06           0        3.48      28.705
  T1                   STORAGE      0.000    5.015     0  14:02           0          15       1.752
  
  
  **********************
  Node Surcharge Summary
  **********************
  
  Surcharging occurs when water rises above the top of the highest conduit.
  ---------------------------------------------------------------------
                                               Max. Height   Min. Depth
                                   Hours       Above Crown    Below Rim
  Node                 Type      Surcharged         Meters       Meters
  ---------------------------------------------------------------------
  J1                   JUNCTION        0.03          6.000        0.000
  CSO7                 JUNCTION        0.80          0.945        0.000
  CSO9                 JUNCTION        0.38          1.682        0.000
  CSO8                 JUNCTION        0.71          1.547        0.000
  CSO10                JUNCTION        0.60          0.560        0.000
  J4                   JUNCTION        0.76          1.139        0.561
  
  
  *********************
  Node Flooding Summary
  *********************
  
  Flooding refers to all water that overflows a node, whether it ponds or not.
  --------------------------------------------------------------------------
                                                             Total   Maximum
                                 Maximum   Time of Max       Flood    Ponded
                        Hours       Rate    Occurrence      Volume     Depth
  Node                 Flooded       CMS   days hr:min    10^6 ltr    Meters
  --------------------------------------------------------------------------
  J1                      0.01     0.780      0  14:01       0.004     5.000
  CSO7                    0.68     0.268      0  14:06       0.191     0.000
  CSO9                    0.24     0.131      0  14:01       0.051     0.000
  CSO8                    0.47     1.213      0  14:01       0.758     0.000
  CSO10                   0.54     2.402      0  14:01       1.319     0.000
  T5                      1.26     2.933      0  14:02       1.850     0.000
  T4                      1.67     0.195      0  14:27       0.326     0.000
  T6                      1.98     0.402      0  14:19       0.680     0.000
  T2                      2.11     1.076      0  14:15       0.876     0.000
  T1                      1.18     4.364      0  14:08       4.502     0.000
  
  
  **********************
  Storage Volume Summary
  **********************
  
  --------------------------------------------------------------------------------------------------
                         Average     Avg  Evap Exfil       Maximum     Max    Time of Max    Maximum
                          Volume    Pcnt  Pcnt  Pcnt        Volume    Pcnt     Occurrence    Outflow
  Storage Unit           1000 m3    Full  Loss  Loss       1000 m3    Full    days hr:min        CMS
  --------------------------------------------------------------------------------------------------
  T5                       0.176      35     0     0         0.500     100       0  14:02      0.039
  T4                       0.204      41     0     0         0.500     100       0  14:27      0.028
  T6                       0.254      42     0     0         0.600     100       0  14:19      0.075
  T3                       0.978      38     0     0         2.287      88       0  17:48      0.151
  T2                       0.418      42     0     0         1.000     100       0  14:15      0.033
  T1                       0.212      30     0     0         0.700     100       0  14:03      0.271
  
  
  ***********************
  Outfall Loading Summary
  ***********************
  
  -----------------------------------------------------------
                         Flow       Avg       Max       Total
                         Freq      Flow      Flow      Volume
  Outfall Node           Pcnt       CMS       CMS    10^6 ltr
  -----------------------------------------------------------
  Out_to_WWTP           99.43     0.118     0.271       9.955
  -----------------------------------------------------------
  System                99.43     0.118     0.271       9.955
  
  
  ********************
  Link Flow Summary
  ********************
  
  -----------------------------------------------------------------------------
                                 Maximum  Time of Max   Maximum    Max/    Max/
                                  |Flow|   Occurrence   |Veloc|    Full    Full
  Link                 Type          CMS  days hr:min     m/sec    Flow   Depth
  -----------------------------------------------------------------------------
  C1                   CONDUIT     0.039     0  14:54      1.20    0.01    0.11
  C6                   CONDUIT     0.075     0  14:06      1.29    1.20    0.90
  C2                   CONDUIT     0.028     0  15:56      1.02    0.03    0.17
  C9                   CONDUIT     0.127     0  14:10      1.30    0.43    0.53
  C16                  CONDUIT     0.486     0  14:12      1.83    0.05    0.17
  C3                   CONDUIT     0.116     0  17:52      1.79    0.04    0.14
  C19                  CONDUIT     0.033     0  16:40      0.74    0.01    0.52
  C11                  CONDUIT     0.182     0  15:30      1.78    0.01    0.31
  C20                  CONDUIT     9.465     0  14:01      8.76    0.30    0.42
  C22                  CONDUIT     0.202     0  14:28      1.55    0.09    0.60
  C12                  CONDUIT     0.075     0  15:40      0.90    0.01    0.13
  C17                  CONDUIT     1.789     0  14:02      4.16    0.09    0.20
  C10                  CONDUIT     0.875     0  14:02      0.94    0.09    0.60
  C13                  CONDUIT     1.594     0  14:03      1.14    0.09    0.60
  C18                  CONDUIT     2.734     0  14:06      1.37    0.10    0.61
  C23                  CONDUIT     5.015     0  14:02      3.25    0.55    0.88
  C4                   CONDUIT     3.903     0  14:01      4.97    0.95    1.00
  C7                   CONDUIT     0.509     0  14:07      1.00    0.13    0.62
  C14                  CONDUIT     0.271     0  14:05      2.08    0.02    0.09
  C5                   CONDUIT     0.085     0  14:03      1.68    1.46    1.00
  C8                   CONDUIT     0.127     0  14:10      1.89    1.60    0.86
  C15                  CONDUIT     0.486     0  14:17      4.11    1.55    0.83
  C21                  CONDUIT     0.202     0  14:28      1.98    1.16    0.69
  V4                   ORIFICE     0.028     0  14:30                      0.35
  V5                   ORIFICE     0.039     0  14:02                      1.00
  V1                   ORIFICE     0.271     0  14:03                      1.00
  V6                   ORIFICE     0.075     0  14:20                      0.43
  V3                   ORIFICE     0.116     0  17:57                      0.65
  V2                   ORIFICE     0.033     0  15:00                      0.24
  
  
  ***************************
  Flow Classification Summary
  ***************************
  
  -------------------------------------------------------------------------------------
                      Adjusted    ---------- Fraction of Time in Flow Class ---------- 
                       /Actual         Up    Down  Sub   Sup   Up    Down  Norm  Inlet 
  Conduit               Length    Dry  Dry   Dry   Crit  Crit  Crit  Crit  Ltd   Ctrl  
  -------------------------------------------------------------------------------------
  C1                      1.00   0.00  0.00  0.00  0.12  0.88  0.00  0.00  0.96  0.00
  C6                      1.00   0.00  0.00  0.00  0.04  0.96  0.00  0.00  0.00  0.00
  C2                      1.00   0.00  0.00  0.00  0.46  0.54  0.00  0.00  0.98  0.00
  C9                      1.00   0.00  0.00  0.00  1.00  0.00  0.00  0.00  1.00  0.00
  C16                     1.00   0.00  0.25  0.00  0.60  0.15  0.00  0.00  0.55  0.00
  C3                      1.00   0.00  0.00  0.00  0.04  0.96  0.00  0.00  0.55  0.00
  C19                     1.00   0.00  0.00  0.00  1.00  0.00  0.00  0.00  1.00  0.00
  C11                     1.00   0.00  0.00  0.00  0.08  0.92  0.00  0.00  1.00  0.00
  C20                     1.00   0.00  0.00  0.00  0.89  0.11  0.00  0.00  0.99  0.00
  C22                     1.00   0.00  0.00  0.00  0.98  0.02  0.00  0.00  1.00  0.00
  C12                     1.00   0.00  0.00  0.00  0.70  0.30  0.00  0.00  0.92  0.00
  C17                     1.00   0.00  0.00  0.00  0.59  0.41  0.00  0.00  0.98  0.00
  C10                     1.00   0.00  0.00  0.00  0.92  0.08  0.00  0.00  0.98  0.00
  C13                     1.00   0.00  0.00  0.00  0.81  0.19  0.00  0.00  0.54  0.00
  C18                     1.00   0.00  0.00  0.00  0.95  0.05  0.00  0.00  0.98  0.00
  C23                     1.00   0.00  0.00  0.00  0.77  0.23  0.00  0.00  0.94  0.00
  C4                      1.00   0.00  0.00  0.00  0.82  0.18  0.00  0.00  0.97  0.00
  C7                      1.00   0.00  0.00  0.00  0.93  0.07  0.00  0.00  0.97  0.00
  C14                     1.00   0.00  0.00  0.00  0.00  1.00  0.00  0.00  0.55  0.00
  C5                      1.00   0.00  0.00  0.00  0.96  0.04  0.00  0.00  0.95  0.00
  C8                      1.00   0.00  0.00  0.00  0.24  0.76  0.00  0.00  0.01  0.00
  C15                     1.00   0.25  0.00  0.00  0.00  0.74  0.00  0.00  0.01  0.00
  C21                     1.00   0.00  0.00  0.00  0.00  1.00  0.00  0.00  0.00  0.00
  
  
  *************************
  Conduit Surcharge Summary
  *************************
  
  ----------------------------------------------------------------------------
                                                           Hours        Hours 
                         --------- Hours Full --------   Above Full   Capacity
  Conduit                Both Ends  Upstream  Dnstream   Normal Flow   Limited
  ----------------------------------------------------------------------------
  C6                          0.01      0.76      0.01      0.67         0.01
  C19                         0.01      0.01      0.12      0.01         0.01
  C22                         0.01      0.01      0.20      0.01         0.01
  C10                         0.01      0.01     10.66      0.01         0.01
  C13                         0.01      0.01      9.55      0.01         0.01
  C18                         0.01      0.01      9.61      0.01         0.01
  C23                         0.01      0.01      9.69      0.01         0.01
  C4                          0.03      0.03     10.00      0.01         0.01
  C7                          0.01      0.01     11.32      0.01         0.01
  C5                          0.76      0.80      0.85      0.78         0.72
  C8                          0.01      0.39      0.01      0.40         0.01
  C15                         0.01      0.71      0.01      0.72         0.01
  C21                         0.01      0.60      0.01      0.58         0.01
  

  Analysis begun on:  Tue Sep 21 04:46:08 2021
  Analysis ended on:  Tue Sep 21 04:46:09 2021
  Total elapsed time: 00:00:01