
  EPA STORM WATER MANAGEMENT MODEL - VERSION 5.1 (Build 5.3.0.dev0)
  --------------------------------------------------------------

  WARNING 09: time series interval greater than recording interval for Rain Gage RG1
  WARNING 09: time series interval greater than recording interval for Rain Gage RG2
  WARNING 09: time series interval greater than recording interval for Rain Gage RG3
  WARNING 09: time series interval greater than recording interval for Rain Gage RG4
  
  *********************************************************
  NOTE: The summary statistics displayed in this report are
  based on results found at every computational time step,  
  not just on results from each reporting time step.
  *********************************************************
  
  ****************
  Analysis Options
  ****************
  Flow Units ............... CMS
  Process Models:
    Rainfall/Runoff ........ YES
    RDII ................... NO
    Snowmelt ............... NO
    Groundwater ............ NO
    Flow Routing ........... YES
    Ponding Allowed ........ YES
    Water Quality .......... NO
  Infiltration Method ...... HORTON
  Flow Routing Method ...... DYNWAVE
  Surcharge Method ......... EXTRAN
  Starting Date ............ 08/28/2015 00:00:00
  Ending Date .............. 08/28/2015 23:40:00
  Antecedent Dry Days ...... 0.0
  Report Time Step ......... 00:01:00
  Wet Time Step ............ 00:01:00
  Dry Time Step ............ 00:01:00
  Routing Time Step ........ 5.00 sec
  Variable Time Step ....... YES
  Maximum Trials ........... 8
  Number of Threads ........ 1
  Head Tolerance ........... 0.001500 m
  
  
  **************************        Volume         Depth
  Runoff Quantity Continuity     hectare-m            mm
  **************************     ---------       -------
  Total Precipitation ......         6.955        38.594
  Evaporation Loss .........         0.000         0.000
  Infiltration Loss ........         0.000         0.000
  Surface Runoff ...........         6.882        38.190
  Final Storage ............         0.081         0.449
  Continuity Error (%) .....        -0.117
  
  
  **************************        Volume        Volume
  Flow Routing Continuity        hectare-m      10^6 ltr
  **************************     ---------     ---------
  Dry Weather Inflow .......         0.758         7.576
  Wet Weather Inflow .......         6.881        68.814
  Groundwater Inflow .......         0.000         0.000
  RDII Inflow ..............         0.000         0.000
  External Inflow ..........         0.000         0.000
  External Outflow .........         1.262        12.617
  Flooding Loss ............         5.237        52.373
  Evaporation Loss .........         0.000         0.000
  Exfiltration Loss ........         0.000         0.000
  Initial Stored Volume ....         0.000         0.000
  Final Stored Volume ......         0.852         8.520
  Continuity Error (%) .....         3.770
  
  
  *************************
  Highest Continuity Errors
  *************************
  Node T2 (10.76%)
  Node T4 (7.54%)
  Node T5 (6.39%)
  Node T3 (6.36%)
  Node T6 (4.83%)
  
  
  ***************************
  Time-Step Critical Elements
  ***************************
  None
  
  
  ********************************
  Highest Flow Instability Indexes
  ********************************
  Link C15 (2)
  Link C20 (2)
  Link C5 (2)
  Link C21 (2)
  Link C18 (1)
  
  
  *************************
  Routing Time Step Summary
  *************************
  Minimum Time Step           :     0.23 sec
  Average Time Step           :     5.00 sec
  Maximum Time Step           :     5.00 sec
  Percent in Steady State     :     0.00
  Average Iterations per Step :     2.96
  Percent Not Converging      :     5.06
  
  
  ***************************
  Subcatchment Runoff Summary
  ***************************
  
  ------------------------------------------------------------------------------------------------------------------------------
                            Total      Total      Total      Total     Imperv       Perv      Total       Total     Peak  Runoff
                           Precip      Runon       Evap      Infil     Runoff     Runoff     Runoff      Runoff   Runoff   Coeff
  Subcatchment                 mm         mm         mm         mm         mm         mm         mm    10^6 ltr      CMS
  ------------------------------------------------------------------------------------------------------------------------------
  SC01                      38.96       0.00       0.00       0.00      38.74       0.00      38.74       12.78     1.27   0.994
  SC02                      33.94       0.00       0.00       0.00      33.77       0.00      33.77        7.68     0.79   0.995
  SC03                      40.56       0.00       0.00       0.00      40.35       0.00      40.35        7.26     0.62   0.995
  SC04                      33.94       0.00       0.00       0.00      33.52       0.00      33.52        2.31     0.17   0.988
  SC05                      38.96       0.00       0.00       0.00      38.71       0.00      38.71        6.04     0.58   0.994
  SC06                      39.80       0.00       0.00       0.00      38.96       0.00      38.96       12.68     0.96   0.979
  SC07                      33.94       0.00       0.00       0.00      33.52       0.00      33.52        1.59     0.12   0.988
  SC08                      40.56       0.00       0.00       0.00      40.06       0.00      40.06       11.22     0.65   0.988
  SC09                      39.80       0.00       0.00       0.00      39.25       0.00      39.25        2.71     0.25   0.986
  SC010                     38.96       0.00       0.00       0.00      38.63       0.00      38.63        4.54     0.39   0.991
  
  
  ******************
  Node Depth Summary
  ******************
  
  ---------------------------------------------------------------------------------
                                 Average  Maximum  Maximum  Time of Max    Reported
                                   Depth    Depth      HGL   Occurrence   Max Depth
  Node                 Type       Meters   Meters   Meters  days hr:min      Meters
  ---------------------------------------------------------------------------------
  J1                   JUNCTION     0.08     0.25    34.25     0  14:26        0.25
  J3                   JUNCTION     0.08     0.14    18.14     0  15:30        0.14
  CSO7                 JUNCTION     0.24     1.20    35.20     0  12:26        1.20
  J5                   JUNCTION     0.07     0.16    32.16     0  13:02        0.16
  CSO9                 JUNCTION     0.30     2.00    42.00     0  13:11        2.00
  J8                   JUNCTION     0.12     0.34    36.34     0  14:47        0.34
  CSO8                 JUNCTION     0.35     2.00    34.00     0  11:40        2.00
  J10                  JUNCTION     0.12     0.29    29.29     0  12:02        0.29
  J13                  JUNCTION     0.07     0.23    29.23     0  14:11        0.23
  J15                  JUNCTION     0.16     0.39    15.39     0  14:28        0.39
  J16                  JUNCTION     0.08     0.26    30.26     0  14:26        0.26
  CSO10                JUNCTION     0.20     1.00    31.00     0  12:56        1.00
  J12                  JUNCTION     0.49     1.03    27.03     0  14:03        1.02
  J4                   JUNCTION     0.19     1.50    34.50     0  12:31        0.80
  J6                   JUNCTION     0.05     0.07    25.07     0  19:00        0.07
  J2                   JUNCTION     0.05     0.08    25.08     0  14:25        0.08
  J19                  JUNCTION     0.12     0.17     8.17     0  13:10        0.17
  J9                   JUNCTION     0.07     0.11    29.11     0  16:10        0.11
  J14                  JUNCTION     0.08     0.15    20.15     0  22:11        0.15
  J17                  JUNCTION     0.04     0.08    20.08     0  19:20        0.08
  J7                   JUNCTION     0.10     0.23    39.23     0  14:59        0.23
  J11                  JUNCTION     0.12     0.30    31.30     0  12:08        0.30
  J18                  JUNCTION     0.07     0.16    29.16     0  16:04        0.16
  Out_to_WWTP          OUTFALL      0.11     0.17     6.17     0  22:12        0.17
  T5                   STORAGE      2.43     5.00    32.00     0  13:42        5.00
  T4                   STORAGE      2.46     5.00    32.00     0  13:32        5.00
  T6                   STORAGE      2.55     5.00    36.00     0  13:19        5.00
  T3                   STORAGE      2.52     5.00    27.00     0  13:22        5.00
  T2                   STORAGE      2.43     5.00    26.00     0  13:29        5.00
  T1                   STORAGE      2.41     5.00    15.00     0  13:08        5.00
  
  
  *******************
  Node Inflow Summary
  *******************
  
  -------------------------------------------------------------------------------------------------
                                  Maximum  Maximum                  Lateral       Total        Flow
                                  Lateral    Total  Time of Max      Inflow      Inflow     Balance
                                   Inflow   Inflow   Occurrence      Volume      Volume       Error
  Node                 Type           CMS      CMS  days hr:min    10^6 ltr    10^6 ltr     Percent
  -------------------------------------------------------------------------------------------------
  J1                   JUNCTION     0.593    0.593     0  14:26        7.13        7.13       0.014
  J3                   JUNCTION     0.000    0.191     0  15:25           0        6.98       0.407
  CSO7                 JUNCTION     0.130    0.130     0  13:01        2.16        2.16       0.011
  J5                   JUNCTION     0.176    0.247     0  13:01        2.56        4.61       0.042
  CSO9                 JUNCTION     0.258    0.258     0  14:41        3.09        3.09      -0.004
  J8                   JUNCTION     0.991    1.118     0  14:46        14.5        17.4       0.081
  CSO8                 JUNCTION     0.656    0.656     0  12:01        11.7        11.7      -0.026
  J10                  JUNCTION     0.639    0.997     0  12:01        8.01        19.5       0.045
  J13                  JUNCTION     0.802    0.802     0  14:11        8.59        8.59      -0.020
  J15                  JUNCTION     0.000    1.546     0  13:01           0        26.6       0.303
  J16                  JUNCTION     1.291    1.291     0  13:01        13.9        13.9      -0.010
  CSO10                JUNCTION     0.394    0.394     0  14:26        4.81        4.81      -0.049
  J12                  JUNCTION     0.000    0.991     0  14:12           0        22.5       3.776
  J4                   JUNCTION     0.000    0.085     0  14:06           0        2.05       0.024
  J6                   JUNCTION     0.000    0.028     0  13:32           0        1.08       0.383
  J2                   JUNCTION     0.000    0.039     0  13:42           0        1.91       0.293
  J19                  JUNCTION     0.000    0.271     0  13:09           0        12.6       0.095
  J9                   JUNCTION     0.000    0.075     0  13:20           0        2.99       0.709
  J14                  JUNCTION     0.000    0.124     0  15:20           0           4       0.101
  J17                  JUNCTION     0.000    0.033     0  13:50           0        1.17       0.522
  J7                   JUNCTION     0.000    0.127     0  14:59           0         2.9       0.153
  J11                  JUNCTION     0.000    0.486     0  12:08           0        11.5       0.145
  J18                  JUNCTION     0.000    0.202     0  16:04           0        4.58       0.059
  Out_to_WWTP          OUTFALL      0.000    0.271     0  13:10           0        12.6       0.000
  T5                   STORAGE      0.000    0.548     0  14:26           0        7.13       6.830
  T4                   STORAGE      0.000    0.236     0  13:02           0        4.61       8.159
  T6                   STORAGE      0.000    1.063     0  14:47           0        17.4       5.073
  T3                   STORAGE      0.000    1.015     0  14:14           0        21.6       6.788
  T2                   STORAGE      0.000    0.735     0  14:11           0        8.59      12.062
  T1                   STORAGE      0.000    1.318     0  14:28           0        26.5       2.782
  
  
  **********************
  Node Surcharge Summary
  **********************
  
  Surcharging occurs when water rises above the top of the highest conduit.
  ---------------------------------------------------------------------
                                               Max. Height   Min. Depth
                                   Hours       Above Crown    Below Rim
  Node                 Type      Surcharged         Meters       Meters
  ---------------------------------------------------------------------
  CSO7                 JUNCTION        4.14          0.945        0.000
  CSO9                 JUNCTION        3.81          1.682        0.000
  CSO8                 JUNCTION        4.73          1.547        0.000
  CSO10                JUNCTION        2.29          0.560        0.000
  J4                   JUNCTION        4.02          1.202        0.498
  
  
  *********************
  Node Flooding Summary
  *********************
  
  Flooding refers to all water that overflows a node, whether it ponds or not.
  --------------------------------------------------------------------------
                                                             Total   Maximum
                                 Maximum   Time of Max       Flood    Ponded
                        Hours       Rate    Occurrence      Volume     Depth
  Node                 Flooded       CMS   days hr:min    10^6 ltr    Meters
  --------------------------------------------------------------------------
  CSO7                    2.18     0.058      0  13:01       0.107     0.000
  CSO9                    1.72     0.130      0  14:41       0.187     0.000
  CSO8                    0.94     0.170      0  12:01       0.157     0.000
  CSO10                   1.23     0.192      0  14:26       0.226     0.000
  T5                      8.28     0.509      0  14:26       4.305     0.000
  T4                      8.73     0.203      0  14:17       2.699     0.000
  T6                     10.01     1.002      0  14:47      12.972     0.000
  T3                      9.88     0.919      0  14:14      13.670     0.000
  T2                      8.91     0.720      0  14:11       5.523     0.000
  T1                      8.86     1.047      0  14:28      12.527     0.000
  
  
  **********************
  Storage Volume Summary
  **********************
  
  --------------------------------------------------------------------------------------------------
                         Average     Avg  Evap Exfil       Maximum     Max    Time of Max    Maximum
                          Volume    Pcnt  Pcnt  Pcnt        Volume    Pcnt     Occurrence    Outflow
  Storage Unit           1000 m3    Full  Loss  Loss       1000 m3    Full    days hr:min        CMS
  --------------------------------------------------------------------------------------------------
  T5                       0.243      49     0     0         0.500     100       0  13:42      0.039
  T4                       0.246      49     0     0         0.500     100       0  13:32      0.028
  T6                       0.306      51     0     0         0.600     100       0  13:19      0.075
  T3                       1.308      50     0     0         2.600     100       0  13:22      0.124
  T2                       0.486      49     0     0         1.000     100       0  13:29      0.033
  T1                       0.337      48     0     0         0.700     100       0  13:08      0.271
  
  
  ***********************
  Outfall Loading Summary
  ***********************
  
  -----------------------------------------------------------
                         Flow       Avg       Max       Total
                         Freq      Flow      Flow      Volume
  Outfall Node           Pcnt       CMS       CMS    10^6 ltr
  -----------------------------------------------------------
  Out_to_WWTP           99.43     0.149     0.271      12.617
  -----------------------------------------------------------
  System                99.43     0.149     0.271      12.617
  
  
  ********************
  Link Flow Summary
  ********************
  
  -----------------------------------------------------------------------------
                                 Maximum  Time of Max   Maximum    Max/    Max/
                                  |Flow|   Occurrence   |Veloc|    Full    Full
  Link                 Type          CMS  days hr:min     m/sec    Flow   Depth
  -----------------------------------------------------------------------------
  C1                   CONDUIT     0.039     0  14:26      1.07    0.01    0.11
  C6                   CONDUIT     0.072     0  13:02      1.29    1.14    0.77
  C2                   CONDUIT     0.028     0  19:00      1.00    0.03    0.18
  C9                   CONDUIT     0.127     0  14:59      1.29    0.43    0.57
  C16                  CONDUIT     0.486     0  12:02      1.77    0.05    0.15
  C3                   CONDUIT     0.124     0  15:22      1.83    0.05    0.14
  C19                  CONDUIT     0.033     0  19:20      0.67    0.01    0.23
  C11                  CONDUIT     0.191     0  15:30      1.63    0.01    0.13
  C20                  CONDUIT     1.175     0  14:26      3.84    0.04    0.16
  C22                  CONDUIT     0.202     0  16:04      1.55    0.09    0.34
  C12                  CONDUIT     0.075     0  16:10      0.82    0.01    0.28
  C17                  CONDUIT     0.918     0  12:02      3.22    0.05    0.33
  C10                  CONDUIT     1.063     0  14:47      0.94    0.11    0.61
  C13                  CONDUIT     1.015     0  14:14      0.84    0.06    0.76
  C18                  CONDUIT     0.735     0  14:11      1.01    0.03    0.56
  C23                  CONDUIT     1.318     0  14:28      1.13    0.15    0.63
  C4                   CONDUIT     0.548     0  14:26      1.13    0.13    0.62
  C7                   CONDUIT     0.236     0  13:02      0.82    0.06    0.58
  C14                  CONDUIT     0.271     0  13:10      2.08    0.02    0.09
  C5                   CONDUIT     0.085     0  14:06      1.67    1.46    1.00
  C8                   CONDUIT     0.127     0  14:59      1.82    1.60    0.86
  C15                  CONDUIT     0.486     0  12:08      3.62    1.55    0.83
  C21                  CONDUIT     0.202     0  16:04      1.87    1.16    0.69
  V4                   ORIFICE     0.028     0  13:32                      0.35
  V5                   ORIFICE     0.039     0  13:42                      1.00
  V1                   ORIFICE     0.271     0  13:09                      1.00
  V6                   ORIFICE     0.075     0  13:20                      0.43
  V3                   ORIFICE     0.124     0  15:20                      0.65
  V2                   ORIFICE     0.033     0  13:50                      0.24
  
  
  ***************************
  Flow Classification Summary
  ***************************
  
  -------------------------------------------------------------------------------------
                      Adjusted    ---------- Fraction of Time in Flow Class ---------- 
                       /Actual         Up    Down  Sub   Sup   Up    Down  Norm  Inlet 
  Conduit               Length    Dry  Dry   Dry   Crit  Crit  Crit  Crit  Ltd   Ctrl  
  -------------------------------------------------------------------------------------
  C1                      1.00   0.00  0.00  0.00  0.11  0.89  0.00  0.00  0.96  0.00
  C6                      1.00   0.00  0.00  0.00  0.20  0.80  0.00  0.00  0.00  0.00
  C2                      1.00   0.00  0.00  0.00  0.54  0.45  0.00  0.00  0.97  0.00
  C9                      1.00   0.00  0.00  0.00  1.00  0.00  0.00  0.00  1.00  0.00
  C16                     1.00   0.00  0.25  0.00  0.23  0.51  0.00  0.00  0.20  0.00
  C3                      1.00   0.00  0.00  0.00  0.04  0.96  0.00  0.00  0.61  0.00
  C19                     1.00   0.00  0.00  0.00  1.00  0.00  0.00  0.00  1.00  0.00
  C11                     1.00   0.00  0.00  0.00  0.37  0.63  0.00  0.00  1.00  0.00
  C20                     1.00   0.00  0.00  0.00  0.48  0.52  0.00  0.00  0.99  0.00
  C22                     1.00   0.00  0.00  0.00  0.75  0.25  0.00  0.00  1.00  0.00
  C12                     1.00   0.00  0.00  0.00  0.76  0.23  0.00  0.00  0.93  0.00
  C17                     1.00   0.00  0.00  0.00  0.68  0.32  0.00  0.00  0.98  0.00
  C10                     1.00   0.00  0.00  0.00  0.94  0.06  0.00  0.00  0.98  0.00
  C13                     1.00   0.00  0.00  0.00  0.82  0.18  0.00  0.00  0.46  0.00
  C18                     1.00   0.00  0.00  0.00  0.93  0.07  0.00  0.00  0.98  0.00
  C23                     1.00   0.00  0.00  0.00  0.77  0.23  0.00  0.00  0.96  0.00
  C4                      1.00   0.00  0.00  0.00  0.82  0.18  0.00  0.00  0.98  0.00
  C7                      1.00   0.00  0.00  0.00  0.88  0.12  0.00  0.00  0.97  0.00
  C14                     1.00   0.00  0.00  0.00  0.00  1.00  0.00  0.00  0.27  0.00
  C5                      1.00   0.00  0.00  0.00  0.94  0.06  0.00  0.00  0.80  0.00
  C8                      1.00   0.00  0.00  0.00  0.36  0.64  0.00  0.00  0.00  0.00
  C15                     1.00   0.25  0.00  0.00  0.00  0.75  0.00  0.00  0.00  0.00
  C21                     1.00   0.00  0.00  0.00  0.02  0.98  0.00  0.00  0.00  0.00
  
  
  *************************
  Conduit Surcharge Summary
  *************************
  
  ----------------------------------------------------------------------------
                                                           Hours        Hours 
                         --------- Hours Full --------   Above Full   Capacity
  Conduit                Both Ends  Upstream  Dnstream   Normal Flow   Limited
  ----------------------------------------------------------------------------
  C6                          0.01      4.02      0.01      3.24         0.01
  C10                         0.01      0.01     11.63      0.01         0.01
  C13                         0.01      0.01     11.62      0.01         0.01
  C18                         0.01      0.01     11.04      0.01         0.01
  C23                         0.01      0.01     11.20      0.01         0.01
  C4                          0.01      0.01     11.80      0.01         0.01
  C7                          0.01      0.01     11.73      0.01         0.01
  C5                          4.02      4.14      4.52      4.14         3.86
  C8                          0.01      3.81      0.01      3.82         0.01
  C15                         0.01      4.73      0.01      5.10         0.01
  C21                         0.01      2.29      0.01      2.05         0.01
  

  Analysis begun on:  Tue Sep 21 05:09:17 2021
  Analysis ended on:  Tue Sep 21 05:09:17 2021
  Total elapsed time: < 1 sec