
  EPA STORM WATER MANAGEMENT MODEL - VERSION 5.1 (Build 5.3.0.dev0)
  --------------------------------------------------------------

  WARNING 09: time series interval greater than recording interval for Rain Gage RG1
  WARNING 09: time series interval greater than recording interval for Rain Gage RG2
  WARNING 09: time series interval greater than recording interval for Rain Gage RG3
  WARNING 09: time series interval greater than recording interval for Rain Gage RG4
  
  *********************************************************
  NOTE: The summary statistics displayed in this report are
  based on results found at every computational time step,  
  not just on results from each reporting time step.
  *********************************************************
  
  ****************
  Analysis Options
  ****************
  Flow Units ............... CMS
  Process Models:
    Rainfall/Runoff ........ YES
    RDII ................... NO
    Snowmelt ............... NO
    Groundwater ............ NO
    Flow Routing ........... YES
    Ponding Allowed ........ YES
    Water Quality .......... NO
  Infiltration Method ...... HORTON
  Flow Routing Method ...... DYNWAVE
  Surcharge Method ......... EXTRAN
  Starting Date ............ 08/28/2015 00:00:00
  Ending Date .............. 08/28/2015 23:40:00
  Antecedent Dry Days ...... 0.0
  Report Time Step ......... 00:01:00
  Wet Time Step ............ 00:01:00
  Dry Time Step ............ 00:01:00
  Routing Time Step ........ 5.00 sec
  Variable Time Step ....... YES
  Maximum Trials ........... 8
  Number of Threads ........ 1
  Head Tolerance ........... 0.001500 m
  
  
  **************************        Volume         Depth
  Runoff Quantity Continuity     hectare-m            mm
  **************************     ---------       -------
  Total Precipitation ......         1.809        10.039
  Evaporation Loss .........         0.000         0.000
  Infiltration Loss ........         0.000         0.000
  Surface Runoff ...........         1.794         9.958
  Final Storage ............         0.016         0.087
  Continuity Error (%) .....        -0.057
  
  
  **************************        Volume        Volume
  Flow Routing Continuity        hectare-m      10^6 ltr
  **************************     ---------     ---------
  Dry Weather Inflow .......         0.758         7.576
  Wet Weather Inflow .......         1.794        17.944
  Groundwater Inflow .......         0.000         0.000
  RDII Inflow ..............         0.000         0.000
  External Inflow ..........         0.000         0.000
  External Outflow .........         1.489        14.892
  Flooding Loss ............         0.318         3.185
  Evaporation Loss .........         0.000         0.000
  Exfiltration Loss ........         0.000         0.000
  Initial Stored Volume ....         0.000         0.000
  Final Stored Volume ......         0.624         6.245
  Continuity Error (%) .....         4.694
  
  
  *************************
  Highest Continuity Errors
  *************************
  Node T2 (22.51%)
  Node T3 (13.68%)
  Node T4 (10.61%)
  Node T6 (7.64%)
  Node T5 (6.46%)
  
  
  ***************************
  Time-Step Critical Elements
  ***************************
  None
  
  
  ********************************
  Highest Flow Instability Indexes
  ********************************
  Link C15 (1)
  
  
  *************************
  Routing Time Step Summary
  *************************
  Minimum Time Step           :     4.50 sec
  Average Time Step           :     5.00 sec
  Maximum Time Step           :     5.00 sec
  Percent in Steady State     :     0.00
  Average Iterations per Step :     2.01
  Percent Not Converging      :     0.01
  
  
  ***************************
  Subcatchment Runoff Summary
  ***************************
  
  ------------------------------------------------------------------------------------------------------------------------------
                            Total      Total      Total      Total     Imperv       Perv      Total       Total     Peak  Runoff
                           Precip      Runon       Evap      Infil     Runoff     Runoff     Runoff      Runoff   Runoff   Coeff
  Subcatchment                 mm         mm         mm         mm         mm         mm         mm    10^6 ltr      CMS
  ------------------------------------------------------------------------------------------------------------------------------
  SC01                      10.90       0.00       0.00       0.00      10.83       0.00      10.83        3.58     0.89   0.994
  SC02                       6.53       0.00       0.00       0.00       6.46       0.00       6.46        1.47     0.18   0.989
  SC03                      10.95       0.00       0.00       0.00      10.90       0.00      10.90        1.96     0.28   0.995
  SC04                       6.53       0.00       0.00       0.00       6.42       0.00       6.42        0.44     0.03   0.983
  SC05                      10.90       0.00       0.00       0.00      10.83       0.00      10.83        1.69     0.40   0.994
  SC06                      10.72       0.00       0.00       0.00      10.60       0.00      10.60        3.45     0.23   0.989
  SC07                       6.53       0.00       0.00       0.00       6.42       0.00       6.42        0.31     0.02   0.983
  SC08                      10.95       0.00       0.00       0.00      10.87       0.00      10.87        3.04     0.28   0.993
  SC09                      10.72       0.00       0.00       0.00      10.64       0.00      10.64        0.73     0.06   0.992
  SC010                     10.90       0.00       0.00       0.00      10.82       0.00      10.82        1.27     0.26   0.992
  
  
  ******************
  Node Depth Summary
  ******************
  
  ---------------------------------------------------------------------------------
                                 Average  Maximum  Maximum  Time of Max    Reported
                                   Depth    Depth      HGL   Occurrence   Max Depth
  Node                 Type       Meters   Meters   Meters  days hr:min      Meters
  ---------------------------------------------------------------------------------
  J1                   JUNCTION     0.06     0.21    34.21     0  12:01        0.21
  J3                   JUNCTION     0.10     0.13    18.13     0  13:35        0.13
  CSO7                 JUNCTION     0.07     0.14    34.14     0  12:07        0.14
  J5                   JUNCTION     0.05     0.09    32.09     0  12:13        0.09
  CSO9                 JUNCTION     0.08     0.24    40.24     0  12:12        0.24
  J8                   JUNCTION     0.09     0.19    36.19     0  12:13        0.19
  CSO8                 JUNCTION     0.09     0.37    32.37     0  12:11        0.36
  J10                  JUNCTION     0.07     0.21    29.21     0  12:17        0.21
  J13                  JUNCTION     0.04     0.12    29.12     0  12:07        0.12
  J15                  JUNCTION     0.14     0.33    15.33     0  12:07        0.33
  J16                  JUNCTION     0.05     0.22    30.22     0  12:01        0.22
  CSO10                JUNCTION     0.09     1.00    31.00     0  12:00        1.00
  J12                  JUNCTION     0.51     1.01    27.01     0  13:09        1.01
  J4                   JUNCTION     0.08     0.17    33.17     0  12:14        0.17
  J6                   JUNCTION     0.05     0.07    25.07     0  14:49        0.07
  J2                   JUNCTION     0.06     0.08    25.08     0  12:57        0.08
  J19                  JUNCTION     0.13     0.17     8.17     0  12:06        0.17
  J9                   JUNCTION     0.08     0.11    29.11     0  08:00        0.11
  J14                  JUNCTION     0.10     0.15    20.15     0  18:11        0.15
  J17                  JUNCTION     0.05     0.07    20.07     0  13:47        0.07
  J7                   JUNCTION     0.07     0.16    39.16     0  12:14        0.16
  J11                  JUNCTION     0.07     0.22    31.22     0  12:17        0.22
  J18                  JUNCTION     0.04     0.16    29.16     0  12:07        0.16
  Out_to_WWTP          OUTFALL      0.13     0.17     6.17     0  13:08        0.17
  T5                   STORAGE      2.61     5.00    32.00     0  12:09        5.00
  T4                   STORAGE      2.16     3.69    30.69     0  14:15        3.69
  T6                   STORAGE      3.62     5.00    36.00     0  07:19        5.00
  T3                   STORAGE      3.37     5.00    27.00     0  12:48        5.00
  T2                   STORAGE      2.22     3.44    24.44     0  13:38        3.44
  T1                   STORAGE      2.45     5.00    15.00     0  12:05        5.00
  
  
  *******************
  Node Inflow Summary
  *******************
  
  -------------------------------------------------------------------------------------------------
                                  Maximum  Maximum                  Lateral       Total        Flow
                                  Lateral    Total  Time of Max      Inflow      Inflow     Balance
                                   Inflow   Inflow   Occurrence      Volume      Volume       Error
  Node                 Type           CMS      CMS  days hr:min    10^6 ltr    10^6 ltr     Percent
  -------------------------------------------------------------------------------------------------
  J1                   JUNCTION     0.424    0.424     0  12:01        2.78        2.78      -0.064
  J3                   JUNCTION     0.000    0.186     0  13:31           0        8.78       0.280
  CSO7                 JUNCTION     0.035    0.035     0  12:06        0.87        0.87       0.013
  J5                   JUNCTION     0.038    0.067     0  12:11       0.691        1.56      -0.030
  CSO9                 JUNCTION     0.073    0.073     0  12:11        1.12        1.12       0.008
  J8                   JUNCTION     0.275    0.329     0  12:11        5.28         6.4      -0.038
  CSO8                 JUNCTION     0.294    0.294     0  12:11        3.49        3.49      -0.003
  J10                  JUNCTION     0.297    0.483     0  12:16        2.71         6.2      -0.094
  J13                  JUNCTION     0.199    0.199     0  12:06        2.38        2.38      -0.189
  J15                  JUNCTION     0.000    1.147     0  12:02           0        16.2       0.344
  J16                  JUNCTION     0.915    0.915     0  12:01        4.65        4.65      -0.055
  CSO10                JUNCTION     0.267    0.267     0  12:01        1.54        1.54      -0.012
  J12                  JUNCTION     0.000    0.511     0  12:17           0        9.93       4.957
  J4                   JUNCTION     0.000    0.034     0  12:07           0        0.87       0.129
  J6                   JUNCTION     0.000    0.024     0  14:20           0        1.18       0.256
  J2                   JUNCTION     0.000    0.039     0  12:09           0        2.24       0.169
  J19                  JUNCTION     0.000    0.271     0  12:05           0        14.9       0.057
  J9                   JUNCTION     0.000    0.075     0  07:30           0        3.72       0.097
  J14                  JUNCTION     0.000    0.124     0  13:36           0        5.37       0.073
  J17                  JUNCTION     0.000    0.028     0  13:38           0        1.31       0.389
  J7                   JUNCTION     0.000    0.069     0  12:12           0        1.12       0.083
  J11                  JUNCTION     0.000    0.291     0  12:11           0        3.49       0.020
  J18                  JUNCTION     0.000    0.202     0  12:06           0        1.53      -0.025
  Out_to_WWTP          OUTFALL      0.000    0.271     0  12:07           0        14.9       0.000
  T5                   STORAGE      0.000    0.390     0  12:01           0        2.78       6.903
  T4                   STORAGE      0.000    0.066     0  12:13           0        1.56      11.867
  T6                   STORAGE      0.000    0.316     0  12:13           0         6.4       8.268
  T3                   STORAGE      0.000    0.353     0  12:13           0        9.46      15.845
  T2                   STORAGE      0.000    0.180     0  12:07           0        2.38      29.056
  T1                   STORAGE      0.000    0.989     0  12:07           0        16.2       1.905
  
  
  **********************
  Node Surcharge Summary
  **********************
  
  Surcharging occurs when water rises above the top of the highest conduit.
  ---------------------------------------------------------------------
                                               Max. Height   Min. Depth
                                   Hours       Above Crown    Below Rim
  Node                 Type      Surcharged         Meters       Meters
  ---------------------------------------------------------------------
  CSO10                JUNCTION        0.16          0.560        0.000
  
  
  *********************
  Node Flooding Summary
  *********************
  
  Flooding refers to all water that overflows a node, whether it ponds or not.
  --------------------------------------------------------------------------
                                                             Total   Maximum
                                 Maximum   Time of Max       Flood    Ponded
                        Hours       Rate    Occurrence      Volume     Depth
  Node                 Flooded       CMS   days hr:min    10^6 ltr    Meters
  --------------------------------------------------------------------------
  CSO10                   0.09     0.071      0  12:01       0.008     0.000
  T5                      0.95     0.224      0  12:09       0.193     0.000
  T6                      6.95     0.271      0  12:13       1.856     0.000
  T3                      2.54     0.131      0  13:12       0.378     0.000
  T1                      0.94     0.719      0  12:07       0.750     0.000
  
  
  **********************
  Storage Volume Summary
  **********************
  
  --------------------------------------------------------------------------------------------------
                         Average     Avg  Evap Exfil       Maximum     Max    Time of Max    Maximum
                          Volume    Pcnt  Pcnt  Pcnt        Volume    Pcnt     Occurrence    Outflow
  Storage Unit           1000 m3    Full  Loss  Loss       1000 m3    Full    days hr:min        CMS
  --------------------------------------------------------------------------------------------------
  T5                       0.261      52     0     0         0.500     100       0  12:09      0.039
  T4                       0.216      43     0     0         0.369      74       0  14:15      0.024
  T6                       0.435      72     0     0         0.600     100       0  07:19      0.075
  T3                       1.752      67     0     0         2.600     100       0  12:48      0.124
  T2                       0.445      44     0     0         0.689      69       0  13:38      0.028
  T1                       0.343      49     0     0         0.700     100       0  12:05      0.271
  
  
  ***********************
  Outfall Loading Summary
  ***********************
  
  -----------------------------------------------------------
                         Flow       Avg       Max       Total
                         Freq      Flow      Flow      Volume
  Outfall Node           Pcnt       CMS       CMS    10^6 ltr
  -----------------------------------------------------------
  Out_to_WWTP           99.43     0.176     0.271      14.892
  -----------------------------------------------------------
  System                99.43     0.176     0.271      14.892
  
  
  ********************
  Link Flow Summary
  ********************
  
  -----------------------------------------------------------------------------
                                 Maximum  Time of Max   Maximum    Max/    Max/
                                  |Flow|   Occurrence   |Veloc|    Full    Full
  Link                 Type          CMS  days hr:min     m/sec    Flow   Depth
  -----------------------------------------------------------------------------
  C1                   CONDUIT     0.039     0  12:56      1.08    0.01    0.11
  C6                   CONDUIT     0.032     0  12:14      1.14    0.51    0.42
  C2                   CONDUIT     0.024     0  14:49      0.91    0.03    0.17
  C9                   CONDUIT     0.063     0  12:14      1.06    0.22    0.34
  C16                  CONDUIT     0.255     0  12:18      1.43    0.02    0.11
  C3                   CONDUIT     0.124     0  13:32      1.87    0.05    0.14
  C19                  CONDUIT     0.028     0  13:47      0.65    0.01    0.20
  C11                  CONDUIT     0.182     0  13:35      1.79    0.01    0.11
  C20                  CONDUIT     0.834     0  12:01      3.36    0.03    0.14
  C22                  CONDUIT     0.201     0  12:07      1.51    0.09    0.31
  C12                  CONDUIT     0.075     0  08:00      0.95    0.01    0.28
  C17                  CONDUIT     0.464     0  12:17      2.03    0.02    0.28
  C10                  CONDUIT     0.316     0  12:13      0.94    0.03    0.56
  C13                  CONDUIT     0.353     0  12:13      1.41    0.02    0.75
  C18                  CONDUIT     0.180     0  12:07      1.01    0.01    0.53
  C23                  CONDUIT     0.989     0  12:07      1.22    0.11    0.61
  C4                   CONDUIT     0.390     0  12:01      1.13    0.09    0.60
  C7                   CONDUIT     0.066     0  12:13      0.82    0.02    0.54
  C14                  CONDUIT     0.271     0  12:07      2.08    0.02    0.09
  C5                   CONDUIT     0.034     0  12:07      1.15    0.59    0.59
  C8                   CONDUIT     0.069     0  12:12      1.36    0.87    0.62
  C15                  CONDUIT     0.291     0  12:11      2.78    0.93    0.62
  C21                  CONDUIT     0.202     0  12:06      1.85    1.16    0.69
  V4                   ORIFICE     0.024     0  14:20                      0.35
  V5                   ORIFICE     0.039     0  12:09                      1.00
  V1                   ORIFICE     0.271     0  12:05                      1.00
  V6                   ORIFICE     0.075     0  07:30                      0.43
  V3                   ORIFICE     0.124     0  13:36                      0.65
  V2                   ORIFICE     0.028     0  13:38                      0.24
  
  
  ***************************
  Flow Classification Summary
  ***************************
  
  -------------------------------------------------------------------------------------
                      Adjusted    ---------- Fraction of Time in Flow Class ---------- 
                       /Actual         Up    Down  Sub   Sup   Up    Down  Norm  Inlet 
  Conduit               Length    Dry  Dry   Dry   Crit  Crit  Crit  Crit  Ltd   Ctrl  
  -------------------------------------------------------------------------------------
  C1                      1.00   0.00  0.00  0.00  0.15  0.85  0.00  0.00  0.96  0.00
  C6                      1.00   0.00  0.00  0.00  0.01  0.99  0.00  0.00  0.00  0.00
  C2                      1.00   0.00  0.00  0.00  0.69  0.31  0.00  0.00  0.98  0.00
  C9                      1.00   0.00  0.00  0.00  1.00  0.00  0.00  0.00  1.00  0.00
  C16                     1.00   0.00  0.08  0.00  0.37  0.55  0.00  0.00  0.27  0.00
  C3                      1.00   0.00  0.00  0.00  0.04  0.96  0.00  0.00  0.47  0.00
  C19                     1.00   0.00  0.00  0.00  1.00  0.00  0.00  0.00  1.00  0.00
  C11                     1.00   0.00  0.00  0.00  0.17  0.83  0.00  0.00  1.00  0.00
  C20                     1.00   0.00  0.00  0.00  0.58  0.42  0.00  0.00  0.99  0.00
  C22                     1.00   0.00  0.00  0.00  0.95  0.05  0.00  0.00  1.00  0.00
  C12                     1.00   0.00  0.00  0.00  0.94  0.06  0.00  0.00  0.98  0.00
  C17                     1.00   0.00  0.00  0.00  0.62  0.38  0.00  0.00  0.98  0.00
  C10                     1.00   0.00  0.00  0.00  0.93  0.07  0.00  0.00  0.98  0.00
  C13                     1.00   0.00  0.00  0.00  0.88  0.12  0.00  0.00  0.34  0.00
  C18                     1.00   0.00  0.00  0.00  0.93  0.07  0.00  0.00  0.98  0.00
  C23                     1.00   0.00  0.00  0.00  0.89  0.11  0.00  0.00  0.96  0.00
  C4                      1.00   0.00  0.00  0.00  0.89  0.11  0.00  0.00  0.98  0.00
  C7                      1.00   0.00  0.00  0.00  0.90  0.10  0.00  0.00  0.97  0.00
  C14                     1.00   0.00  0.00  0.00  0.00  1.00  0.00  0.00  0.52  0.00
  C5                      1.00   0.00  0.00  0.00  0.89  0.11  0.00  0.00  0.99  0.00
  C8                      1.00   0.00  0.00  0.00  0.14  0.86  0.00  0.00  0.01  0.00
  C15                     1.00   0.08  0.00  0.00  0.01  0.91  0.00  0.00  0.02  0.00
  C21                     1.00   0.00  0.00  0.00  0.00  1.00  0.00  0.00  0.00  0.00
  
  
  *************************
  Conduit Surcharge Summary
  *************************
  
  ----------------------------------------------------------------------------
                                                           Hours        Hours 
                         --------- Hours Full --------   Above Full   Capacity
  Conduit                Both Ends  Upstream  Dnstream   Normal Flow   Limited
  ----------------------------------------------------------------------------
  C10                         0.01      0.01     19.47      0.01         0.01
  C13                         0.01      0.01     16.85      0.01         0.01
  C18                         0.01      0.01     15.76      0.01         0.01
  C23                         0.01      0.01     19.11      0.01         0.01
  C4                          0.01      0.01     19.42      0.01         0.01
  C7                          0.01      0.01     18.56      0.01         0.01
  C21                         0.01      0.16      0.01      0.15         0.01
  

  Analysis begun on:  Tue Sep 21 02:36:54 2021
  Analysis ended on:  Tue Sep 21 02:36:55 2021
  Total elapsed time: 00:00:01