
  EPA STORM WATER MANAGEMENT MODEL - VERSION 5.1 (Build 5.3.0.dev0)
  --------------------------------------------------------------

  WARNING 09: time series interval greater than recording interval for Rain Gage RG1
  WARNING 09: time series interval greater than recording interval for Rain Gage RG2
  WARNING 09: time series interval greater than recording interval for Rain Gage RG3
  WARNING 09: time series interval greater than recording interval for Rain Gage RG4
  
  *********************************************************
  NOTE: The summary statistics displayed in this report are
  based on results found at every computational time step,  
  not just on results from each reporting time step.
  *********************************************************
  
  ****************
  Analysis Options
  ****************
  Flow Units ............... CMS
  Process Models:
    Rainfall/Runoff ........ YES
    RDII ................... NO
    Snowmelt ............... NO
    Groundwater ............ NO
    Flow Routing ........... YES
    Ponding Allowed ........ YES
    Water Quality .......... NO
  Infiltration Method ...... HORTON
  Flow Routing Method ...... DYNWAVE
  Surcharge Method ......... EXTRAN
  Starting Date ............ 08/28/2015 00:00:00
  Ending Date .............. 08/28/2015 23:40:00
  Antecedent Dry Days ...... 0.0
  Report Time Step ......... 00:01:00
  Wet Time Step ............ 00:01:00
  Dry Time Step ............ 00:01:00
  Routing Time Step ........ 5.00 sec
  Variable Time Step ....... YES
  Maximum Trials ........... 8
  Number of Threads ........ 1
  Head Tolerance ........... 0.001500 m
  
  
  **************************        Volume         Depth
  Runoff Quantity Continuity     hectare-m            mm
  **************************     ---------       -------
  Total Precipitation ......         2.024        11.234
  Evaporation Loss .........         0.000         0.000
  Infiltration Loss ........         0.000         0.000
  Surface Runoff ...........         2.011        11.161
  Final Storage ............         0.018         0.103
  Continuity Error (%) .....        -0.265
  
  
  **************************        Volume        Volume
  Flow Routing Continuity        hectare-m      10^6 ltr
  **************************     ---------     ---------
  Dry Weather Inflow .......         0.758         7.576
  Wet Weather Inflow .......         2.011        20.112
  Groundwater Inflow .......         0.000         0.000
  RDII Inflow ..............         0.000         0.000
  External Inflow ..........         0.000         0.000
  External Outflow .........         1.481        14.807
  Flooding Loss ............         0.628         6.284
  Evaporation Loss .........         0.000         0.000
  Exfiltration Loss ........         0.000         0.000
  Initial Stored Volume ....         0.000         0.000
  Final Stored Volume ......         0.547         5.467
  Continuity Error (%) .....         4.081
  
  
  *************************
  Highest Continuity Errors
  *************************
  Node T2 (25.06%)
  Node T3 (13.13%)
  Node T4 (11.52%)
  Node T6 (7.16%)
  Node T5 (6.69%)
  
  
  ***************************
  Time-Step Critical Elements
  ***************************
  None
  
  
  ********************************
  Highest Flow Instability Indexes
  ********************************
  All links are stable.
  
  
  *************************
  Routing Time Step Summary
  *************************
  Minimum Time Step           :     4.50 sec
  Average Time Step           :     5.00 sec
  Maximum Time Step           :     5.00 sec
  Percent in Steady State     :     0.00
  Average Iterations per Step :     2.04
  Percent Not Converging      :     0.03
  
  
  ***************************
  Subcatchment Runoff Summary
  ***************************
  
  ------------------------------------------------------------------------------------------------------------------------------
                            Total      Total      Total      Total     Imperv       Perv      Total       Total     Peak  Runoff
                           Precip      Runon       Evap      Infil     Runoff     Runoff     Runoff      Runoff   Runoff   Coeff
  Subcatchment                 mm         mm         mm         mm         mm         mm         mm    10^6 ltr      CMS
  ------------------------------------------------------------------------------------------------------------------------------
  SC01                      15.51       0.00       0.00       0.00      15.51       0.00      15.51        5.12     4.10   1.000
  SC02                       7.40       0.00       0.00       0.00       7.34       0.00       7.34        1.67     0.54   0.992
  SC03                       6.05       0.00       0.00       0.00       6.01       0.00       6.01        1.08     0.36   0.993
  SC04                       7.40       0.00       0.00       0.00       7.28       0.00       7.28        0.50     0.08   0.984
  SC05                      15.51       0.00       0.00       0.00      15.50       0.00      15.50        2.42     1.81   0.999
  SC06                      14.08       0.00       0.00       0.00      13.90       0.00      13.90        4.52     1.54   0.987
  SC07                       7.40       0.00       0.00       0.00       7.28       0.00       7.28        0.35     0.05   0.984
  SC08                       6.05       0.00       0.00       0.00       5.97       0.00       5.97        1.67     0.33   0.987
  SC09                      14.08       0.00       0.00       0.00      13.97       0.00      13.97        0.96     0.47   0.992
  SC010                     15.51       0.00       0.00       0.00      15.47       0.00      15.47        1.82     1.14   0.997
  
  
  ******************
  Node Depth Summary
  ******************
  
  ---------------------------------------------------------------------------------
                                 Average  Maximum  Maximum  Time of Max    Reported
                                   Depth    Depth      HGL   Occurrence   Max Depth
  Node                 Type       Meters   Meters   Meters  days hr:min      Meters
  ---------------------------------------------------------------------------------
  J1                   JUNCTION     0.06     0.45    34.45     0  09:16        0.43
  J3                   JUNCTION     0.09     0.13    18.13     0  19:30        0.13
  CSO7                 JUNCTION     0.07     0.23    34.23     0  09:22        0.23
  J5                   JUNCTION     0.05     0.12    32.12     0  09:28        0.12
  CSO9                 JUNCTION     0.11     2.00    42.00     0  09:15        2.00
  J8                   JUNCTION     0.09     0.41    36.41     0  09:22        0.41
  CSO8                 JUNCTION     0.07     0.60    32.60     0  09:22        0.60
  J10                  JUNCTION     0.06     0.23    29.23     0  09:23        0.23
  J13                  JUNCTION     0.04     0.19    29.19     0  09:22        0.18
  J15                  JUNCTION     0.14     0.58    15.58     0  09:18        0.58
  J16                  JUNCTION     0.05     0.48    30.48     0  09:16        0.46
  CSO10                JUNCTION     0.10     1.00    31.00     0  09:06        1.00
  J12                  JUNCTION     0.10     0.25    26.25     0  09:27        0.25
  J4                   JUNCTION     0.09     0.23    33.23     0  09:29        0.23
  J6                   JUNCTION     0.05     0.07    25.07     0  17:59        0.07
  J2                   JUNCTION     0.06     0.08    25.08     0  10:11        0.08
  J19                  JUNCTION     0.13     0.17     8.17     0  09:21        0.17
  J9                   JUNCTION     0.08     0.11    29.11     0  18:38        0.11
  J14                  JUNCTION     0.10     0.14    20.14     0  19:51        0.14
  J17                  JUNCTION     0.05     0.07    20.07     0  19:51        0.07
  J7                   JUNCTION     0.06     0.23    39.23     0  09:37        0.23
  J11                  JUNCTION     0.06     0.23    31.23     0  09:24        0.23
  J18                  JUNCTION     0.04     0.16    29.16     0  09:34        0.16
  Out_to_WWTP          OUTFALL      0.13     0.17     6.17     0  10:16        0.17
  T5                   STORAGE      2.91     5.00    32.00     0  09:21        5.00
  T4                   STORAGE      2.34     3.68    30.68     0  17:45        3.68
  T6                   STORAGE      3.40     5.00    36.00     0  09:22        5.00
  T3                   STORAGE      2.34     3.82    25.82     0  17:54        3.82
  T2                   STORAGE      2.44     3.83    24.83     0  18:12        3.83
  T1                   STORAGE      2.47     5.00    15.00     0  09:20        5.00
  
  
  *******************
  Node Inflow Summary
  *******************
  
  -------------------------------------------------------------------------------------------------
                                  Maximum  Maximum                  Lateral       Total        Flow
                                  Lateral    Total  Time of Max      Inflow      Inflow     Balance
                                   Inflow   Inflow   Occurrence      Volume      Volume       Error
  Node                 Type           CMS      CMS  days hr:min    10^6 ltr    10^6 ltr     Percent
  -------------------------------------------------------------------------------------------------
  J1                   JUNCTION     1.831    1.831     0  09:16        3.51        3.51      -0.042
  J3                   JUNCTION     0.000    0.170     0  17:21           0        8.25       0.298
  CSO7                 JUNCTION     0.064    0.064     0  09:21       0.911       0.911       0.022
  J5                   JUNCTION     0.083    0.127     0  09:26        0.75        1.66      -0.032
  CSO9                 JUNCTION     0.475    0.475     0  09:16        1.35        1.35      -0.018
  J8                   JUNCTION     1.567    1.684     0  09:21        6.36        7.49      -0.023
  CSO8                 JUNCTION     0.344    0.344     0  09:21        2.12        2.12      -0.012
  J10                  JUNCTION     0.376    0.590     0  09:21        1.83        3.95      -0.047
  J13                  JUNCTION     0.551    0.551     0  09:21        2.58        2.58      -0.198
  J15                  JUNCTION     0.000    4.260     0  09:16           0        17.3       0.326
  J16                  JUNCTION     4.122    4.122     0  09:16         6.2         6.2      -0.123
  CSO10                JUNCTION     1.146    1.146     0  09:16        2.09        2.09      -0.037
  J12                  JUNCTION     0.000    0.626     0  09:23           0        7.51       0.153
  J4                   JUNCTION     0.000    0.060     0  09:22           0       0.911       0.120
  J6                   JUNCTION     0.000    0.024     0  17:50           0        1.22       0.265
  J2                   JUNCTION     0.000    0.039     0  09:21           0        2.33       0.188
  J19                  JUNCTION     0.000    0.271     0  09:20           0        14.8       0.060
  J9                   JUNCTION     0.000    0.075     0  10:30           0        3.57       0.169
  J14                  JUNCTION     0.000    0.108     0  18:00           0        4.72       0.075
  J17                  JUNCTION     0.000    0.029     0  17:50           0        1.27       0.237
  J7                   JUNCTION     0.000    0.127     0  09:37           0        1.13       0.088
  J11                  JUNCTION     0.000    0.327     0  09:23           0        2.12       0.083
  J18                  JUNCTION     0.000    0.202     0  09:34           0        1.64      -0.044
  Out_to_WWTP          OUTFALL      0.000    0.271     0  09:21           0        14.8       0.000
  T5                   STORAGE      0.000    1.707     0  09:16           0        3.51       7.167
  T4                   STORAGE      0.000    0.124     0  09:28           0        1.66      13.016
  T6                   STORAGE      0.000    1.578     0  09:22           0        7.49       7.711
  T3                   STORAGE      0.000    0.571     0  09:27           0         7.5      15.109
  T2                   STORAGE      0.000    0.478     0  09:22           0        2.58      33.445
  T1                   STORAGE      0.000    2.907     0  09:18           0        17.3       1.780
  
  
  **********************
  Node Surcharge Summary
  **********************
  
  Surcharging occurs when water rises above the top of the highest conduit.
  ---------------------------------------------------------------------
                                               Max. Height   Min. Depth
                                   Hours       Above Crown    Below Rim
  Node                 Type      Surcharged         Meters       Meters
  ---------------------------------------------------------------------
  CSO9                 JUNCTION        0.53          1.682        0.000
  CSO8                 JUNCTION        0.02          0.150        1.397
  CSO10                JUNCTION        0.60          0.560        0.000
  
  
  *********************
  Node Flooding Summary
  *********************
  
  Flooding refers to all water that overflows a node, whether it ponds or not.
  --------------------------------------------------------------------------
                                                             Total   Maximum
                                 Maximum   Time of Max       Flood    Ponded
                        Hours       Rate    Occurrence      Volume     Depth
  Node                 Flooded       CMS   days hr:min    10^6 ltr    Meters
  --------------------------------------------------------------------------
  CSO9                    0.38     0.353      0  09:16       0.214     0.000
  CSO10                   0.45     0.943      0  09:16       0.444     0.000
  T5                      1.71     1.065      0  09:21       0.702     0.000
  T6                      6.00     1.488      0  09:22       3.011     0.000
  T1                      1.18     2.436      0  09:20       1.913     0.000
  
  
  **********************
  Storage Volume Summary
  **********************
  
  --------------------------------------------------------------------------------------------------
                         Average     Avg  Evap Exfil       Maximum     Max    Time of Max    Maximum
                          Volume    Pcnt  Pcnt  Pcnt        Volume    Pcnt     Occurrence    Outflow
  Storage Unit           1000 m3    Full  Loss  Loss       1000 m3    Full    days hr:min        CMS
  --------------------------------------------------------------------------------------------------
  T5                       0.291      58     0     0         0.500     100       0  09:21      0.039
  T4                       0.234      47     0     0         0.368      74       0  17:45      0.024
  T6                       0.408      68     0     0         0.600     100       0  09:22      0.075
  T3                       1.216      47     0     0         1.988      76       0  17:54      0.108
  T2                       0.489      49     0     0         0.767      77       0  18:12      0.029
  T1                       0.346      49     0     0         0.700     100       0  09:20      0.271
  
  
  ***********************
  Outfall Loading Summary
  ***********************
  
  -----------------------------------------------------------
                         Flow       Avg       Max       Total
                         Freq      Flow      Flow      Volume
  Outfall Node           Pcnt       CMS       CMS    10^6 ltr
  -----------------------------------------------------------
  Out_to_WWTP           99.43     0.175     0.271      14.807
  -----------------------------------------------------------
  System                99.43     0.175     0.271      14.807
  
  
  ********************
  Link Flow Summary
  ********************
  
  -----------------------------------------------------------------------------
                                 Maximum  Time of Max   Maximum    Max/    Max/
                                  |Flow|   Occurrence   |Veloc|    Full    Full
  Link                 Type          CMS  days hr:min     m/sec    Flow   Depth
  -----------------------------------------------------------------------------
  C1                   CONDUIT     0.039     0  10:11      1.13    0.01    0.10
  C6                   CONDUIT     0.054     0  09:29      1.25    0.86    0.59
  C2                   CONDUIT     0.024     0  17:59      0.94    0.03    0.16
  C9                   CONDUIT     0.127     0  09:38      1.22    0.43    0.63
  C16                  CONDUIT     0.294     0  09:24      1.47    0.03    0.12
  C3                   CONDUIT     0.108     0  18:02      1.76    0.04    0.13
  C19                  CONDUIT     0.029     0  19:51      0.64    0.01    0.31
  C11                  CONDUIT     0.167     0  19:30      1.74    0.01    0.17
  C20                  CONDUIT     3.963     0  09:16      6.76    0.12    0.25
  C22                  CONDUIT     0.202     0  09:35      1.62    0.09    0.47
  C12                  CONDUIT     0.075     0  12:49      1.18    0.01    0.09
  C17                  CONDUIT     0.565     0  09:23      2.83    0.03    0.12
  C10                  CONDUIT     1.578     0  09:22      1.33    0.16    0.64
  C13                  CONDUIT     0.571     0  09:27      1.39    0.03    0.56
  C18                  CONDUIT     0.478     0  09:22      1.53    0.02    0.54
  C23                  CONDUIT     2.907     0  09:18      2.22    0.32    0.69
  C4                   CONDUIT     1.707     0  09:16      2.80    0.41    0.72
  C7                   CONDUIT     0.124     0  09:28      0.87    0.03    0.56
  C14                  CONDUIT     0.271     0  09:21      2.08    0.02    0.09
  C5                   CONDUIT     0.060     0  09:22      1.45    1.03    0.85
  C8                   CONDUIT     0.127     0  09:37      1.86    1.60    0.86
  C15                  CONDUIT     0.327     0  09:23      3.06    1.04    0.75
  C21                  CONDUIT     0.202     0  09:34      1.93    1.16    0.69
  V4                   ORIFICE     0.024     0  17:50                      0.35
  V5                   ORIFICE     0.039     0  09:21                      1.00
  V1                   ORIFICE     0.271     0  09:20                      1.00
  V6                   ORIFICE     0.075     0  10:30                      0.43
  V3                   ORIFICE     0.108     0  18:00                      0.65
  V2                   ORIFICE     0.029     0  17:50                      0.24
  
  
  ***************************
  Flow Classification Summary
  ***************************
  
  -------------------------------------------------------------------------------------
                      Adjusted    ---------- Fraction of Time in Flow Class ---------- 
                       /Actual         Up    Down  Sub   Sup   Up    Down  Norm  Inlet 
  Conduit               Length    Dry  Dry   Dry   Crit  Crit  Crit  Crit  Ltd   Ctrl  
  -------------------------------------------------------------------------------------
  C1                      1.00   0.00  0.00  0.00  0.10  0.90  0.00  0.00  0.96  0.00
  C6                      1.00   0.00  0.00  0.00  0.01  0.99  0.00  0.00  0.00  0.00
  C2                      1.00   0.00  0.00  0.00  0.60  0.40  0.00  0.00  0.97  0.00
  C9                      1.00   0.00  0.00  0.00  1.00  0.00  0.00  0.00  1.00  0.00
  C16                     1.00   0.00  0.05  0.00  0.57  0.38  0.00  0.00  0.47  0.00
  C3                      1.00   0.00  0.00  0.00  0.04  0.96  0.00  0.00  0.53  0.00
  C19                     1.00   0.00  0.00  0.00  1.00  0.00  0.00  0.00  1.00  0.00
  C11                     1.00   0.00  0.00  0.00  0.15  0.85  0.00  0.00  1.00  0.00
  C20                     1.00   0.00  0.00  0.00  0.72  0.28  0.00  0.00  0.99  0.00
  C22                     1.00   0.00  0.00  0.00  0.95  0.05  0.00  0.00  1.00  0.00
  C12                     1.00   0.00  0.00  0.00  0.46  0.54  0.00  0.00  0.78  0.00
  C17                     1.00   0.00  0.00  0.00  0.41  0.59  0.00  0.00  0.97  0.00
  C10                     1.00   0.00  0.00  0.00  0.92  0.08  0.00  0.00  0.98  0.00
  C13                     1.00   0.00  0.00  0.00  0.92  0.08  0.00  0.00  0.93  0.00
  C18                     1.00   0.00  0.00  0.00  0.94  0.06  0.00  0.00  0.98  0.00
  C23                     1.00   0.00  0.00  0.00  0.92  0.08  0.00  0.00  0.95  0.00
  C4                      1.00   0.00  0.00  0.00  0.92  0.08  0.00  0.00  0.97  0.00
  C7                      1.00   0.00  0.00  0.00  0.93  0.07  0.00  0.00  0.97  0.00
  C14                     1.00   0.00  0.00  0.00  0.00  1.00  0.00  0.00  0.56  0.00
  C5                      1.00   0.00  0.00  0.00  0.89  0.11  0.00  0.00  0.97  0.00
  C8                      1.00   0.00  0.00  0.00  0.18  0.82  0.00  0.00  0.01  0.00
  C15                     1.00   0.05  0.00  0.00  0.00  0.95  0.00  0.00  0.01  0.00
  C21                     1.00   0.00  0.00  0.00  0.00  1.00  0.00  0.00  0.00  0.00
  
  
  *************************
  Conduit Surcharge Summary
  *************************
  
  ----------------------------------------------------------------------------
                                                           Hours        Hours 
                         --------- Hours Full --------   Above Full   Capacity
  Conduit                Both Ends  Upstream  Dnstream   Normal Flow   Limited
  ----------------------------------------------------------------------------
  C10                         0.01      0.01     18.90      0.01         0.01
  C13                         0.01      0.01     14.13      0.01         0.01
  C18                         0.01      0.01     14.24      0.01         0.01
  C23                         0.01      0.01     16.14      0.01         0.01
  C4                          0.01      0.01     18.89      0.01         0.01
  C7                          0.01      0.01     19.34      0.01         0.01
  C5                          0.01      0.01      0.01      0.05         0.01
  C8                          0.01      0.53      0.01      0.54         0.01
  C15                         0.01      0.02      0.01      0.04         0.01
  C21                         0.01      0.60      0.01      0.56         0.01
  

  Analysis begun on:  Tue Sep 21 05:38:04 2021
  Analysis ended on:  Tue Sep 21 05:38:04 2021
  Total elapsed time: < 1 sec