
  EPA STORM WATER MANAGEMENT MODEL - VERSION 5.1 (Build 5.3.0.dev0)
  --------------------------------------------------------------

  WARNING 09: time series interval greater than recording interval for Rain Gage RG1
  WARNING 09: time series interval greater than recording interval for Rain Gage RG2
  WARNING 09: time series interval greater than recording interval for Rain Gage RG3
  WARNING 09: time series interval greater than recording interval for Rain Gage RG4
  
  *********************************************************
  NOTE: The summary statistics displayed in this report are
  based on results found at every computational time step,  
  not just on results from each reporting time step.
  *********************************************************
  
  ****************
  Analysis Options
  ****************
  Flow Units ............... CMS
  Process Models:
    Rainfall/Runoff ........ YES
    RDII ................... NO
    Snowmelt ............... NO
    Groundwater ............ NO
    Flow Routing ........... YES
    Ponding Allowed ........ YES
    Water Quality .......... NO
  Infiltration Method ...... HORTON
  Flow Routing Method ...... DYNWAVE
  Surcharge Method ......... EXTRAN
  Starting Date ............ 08/28/2015 00:00:00
  Ending Date .............. 08/28/2015 23:40:00
  Antecedent Dry Days ...... 0.0
  Report Time Step ......... 00:01:00
  Wet Time Step ............ 00:01:00
  Dry Time Step ............ 00:01:00
  Routing Time Step ........ 5.00 sec
  Variable Time Step ....... YES
  Maximum Trials ........... 8
  Number of Threads ........ 1
  Head Tolerance ........... 0.001500 m
  
  
  **************************        Volume         Depth
  Runoff Quantity Continuity     hectare-m            mm
  **************************     ---------       -------
  Total Precipitation ......         1.970        10.932
  Evaporation Loss .........         0.000         0.000
  Infiltration Loss ........         0.000         0.000
  Surface Runoff ...........         1.890        10.488
  Final Storage ............         0.086         0.475
  Continuity Error (%) .....        -0.285
  
  
  **************************        Volume        Volume
  Flow Routing Continuity        hectare-m      10^6 ltr
  **************************     ---------     ---------
  Dry Weather Inflow .......         0.758         7.576
  Wet Weather Inflow .......         1.889        18.891
  Groundwater Inflow .......         0.000         0.000
  RDII Inflow ..............         0.000         0.000
  External Inflow ..........         0.000         0.000
  External Outflow .........         1.149        11.486
  Flooding Loss ............         0.639         6.391
  Evaporation Loss .........         0.000         0.000
  Exfiltration Loss ........         0.000         0.000
  Initial Stored Volume ....         0.000         0.000
  Final Stored Volume ......         0.658         6.583
  Continuity Error (%) .....         7.583
  
  
  *************************
  Highest Continuity Errors
  *************************
  Node T2 (21.94%)
  Node T3 (16.22%)
  Node T4 (13.13%)
  Node T6 (12.63%)
  Node T5 (10.01%)
  
  
  ***************************
  Time-Step Critical Elements
  ***************************
  None
  
  
  ********************************
  Highest Flow Instability Indexes
  ********************************
  All links are stable.
  
  
  *************************
  Routing Time Step Summary
  *************************
  Minimum Time Step           :     4.50 sec
  Average Time Step           :     5.00 sec
  Maximum Time Step           :     5.00 sec
  Percent in Steady State     :     0.00
  Average Iterations per Step :     2.18
  Percent Not Converging      :     0.74
  
  
  ***************************
  Subcatchment Runoff Summary
  ***************************
  
  ------------------------------------------------------------------------------------------------------------------------------
                            Total      Total      Total      Total     Imperv       Perv      Total       Total     Peak  Runoff
                           Precip      Runon       Evap      Infil     Runoff     Runoff     Runoff      Runoff   Runoff   Coeff
  Subcatchment                 mm         mm         mm         mm         mm         mm         mm    10^6 ltr      CMS
  ------------------------------------------------------------------------------------------------------------------------------
  SC01                      13.53       0.00       0.00       0.00      13.10       0.00      13.10        4.32     2.73   0.968
  SC02                      14.11       0.00       0.00       0.00      13.88       0.00      13.88        3.16     2.70   0.984
  SC03                       6.47       0.00       0.00       0.00       6.05       0.00       6.05        1.09     0.27   0.936
  SC04                      14.11       0.00       0.00       0.00      13.72       0.00      13.72        0.95     0.41   0.972
  SC05                      13.53       0.00       0.00       0.00      13.08       0.00      13.08        2.04     1.22   0.967
  SC06                       9.39       0.00       0.00       0.00       8.91       0.00       8.91        2.90     0.53   0.949
  SC07                      14.11       0.00       0.00       0.00      13.72       0.00      13.72        0.65     0.28   0.972
  SC08                       6.47       0.00       0.00       0.00       5.83       0.00       5.83        1.63     0.31   0.902
  SC09                       9.39       0.00       0.00       0.00       9.05       0.00       9.05        0.62     0.14   0.964
  SC010                     13.53       0.00       0.00       0.00      13.02       0.00      13.02        1.53     0.78   0.962
  
  
  ******************
  Node Depth Summary
  ******************
  
  ---------------------------------------------------------------------------------
                                 Average  Maximum  Maximum  Time of Max    Reported
                                   Depth    Depth      HGL   Occurrence   Max Depth
  Node                 Type       Meters   Meters   Meters  days hr:min      Meters
  ---------------------------------------------------------------------------------
  J1                   JUNCTION     0.06     0.36    34.36     0  16:51        0.35
  J3                   JUNCTION     0.09     0.13    18.13     0  19:40        0.13
  CSO7                 JUNCTION     0.11     1.20    35.20     0  17:06        1.20
  J5                   JUNCTION     0.05     0.22    32.22     0  17:12        0.22
  CSO9                 JUNCTION     0.11     2.00    42.00     0  18:10        2.00
  J8                   JUNCTION     0.08     0.26    36.26     0  18:22        0.26
  CSO8                 JUNCTION     0.07     0.38    32.38     0  18:26        0.37
  J10                  JUNCTION     0.06     0.21    29.21     0  18:32        0.21
  J13                  JUNCTION     0.05     0.41    29.41     0  17:11        0.40
  J15                  JUNCTION     0.13     0.51    15.51     0  16:53        0.51
  J16                  JUNCTION     0.05     0.39    30.39     0  16:46        0.38
  CSO10                JUNCTION     0.10     1.00    31.00     0  16:45        1.00
  J12                  JUNCTION     0.09     0.24    26.24     0  18:34        0.24
  J4                   JUNCTION     0.11     1.18    34.18     0  17:12        0.80
  J6                   JUNCTION     0.05     0.07    25.07     0  19:00        0.07
  J2                   JUNCTION     0.06     0.08    25.08     0  18:53        0.08
  J19                  JUNCTION     0.12     0.17     8.17     0  17:00        0.17
  J9                   JUNCTION     0.07     0.11    29.11     0  22:07        0.11
  J14                  JUNCTION     0.08     0.14    20.14     0  23:11        0.14
  J17                  JUNCTION     0.05     0.08    20.08     0  19:20        0.08
  J7                   JUNCTION     0.06     0.23    39.23     0  18:22        0.23
  J11                  JUNCTION     0.06     0.23    31.23     0  18:32        0.23
  J18                  JUNCTION     0.04     0.16    29.16     0  17:07        0.16
  Out_to_WWTP          OUTFALL      0.12     0.17     6.17     0  19:08        0.17
  T5                   STORAGE      1.88     5.00    32.00     0  17:05        5.00
  T4                   STORAGE      2.10     5.00    32.00     0  17:46        5.00
  T6                   STORAGE      2.24     5.00    36.00     0  18:23        5.00
  T3                   STORAGE      1.41     3.96    25.96     0  20:24        3.96
  T2                   STORAGE      2.14     5.00    26.00     0  17:24        5.00
  T1                   STORAGE      1.65     5.00    15.00     0  16:59        5.00
  
  
  *******************
  Node Inflow Summary
  *******************
  
  -------------------------------------------------------------------------------------------------
                                  Maximum  Maximum                  Lateral       Total        Flow
                                  Lateral    Total  Time of Max      Inflow      Inflow     Balance
                                   Inflow   Inflow   Occurrence      Volume      Volume       Error
  Node                 Type           CMS      CMS  days hr:min    10^6 ltr    10^6 ltr     Percent
  -------------------------------------------------------------------------------------------------
  J1                   JUNCTION     1.234    1.234     0  16:51        3.13        3.13       0.072
  J3                   JUNCTION     0.000    0.176     0  19:40           0        6.55       0.512
  CSO7                 JUNCTION     0.289    0.289     0  17:11        1.22        1.22       0.039
  J5                   JUNCTION     0.412    0.472     0  17:11        1.19        2.27       0.048
  CSO9                 JUNCTION     0.147    0.147     0  18:16        1.01        1.01       0.018
  J8                   JUNCTION     0.554    0.675     0  18:21        4.73        5.73       0.100
  CSO8                 JUNCTION     0.309    0.309     0  18:26        2.08        2.08       0.081
  J10                  JUNCTION     0.284    0.491     0  18:31        1.84         3.9       0.527
  J13                  JUNCTION     2.709    2.709     0  17:11        4.07        4.07      -0.025
  J15                  JUNCTION     0.000    2.836     0  16:51           0        14.5       0.619
  J16                  JUNCTION     2.746    2.746     0  16:51         5.4         5.4      -0.015
  CSO10                JUNCTION     0.787    0.787     0  16:51         1.8         1.8      -0.013
  J12                  JUNCTION     0.000    0.539     0  18:32           0        6.79       0.746
  J4                   JUNCTION     0.000    0.084     0  17:10           0        1.08       0.131
  J6                   JUNCTION     0.000    0.028     0  17:46           0         1.1       0.221
  J2                   JUNCTION     0.000    0.039     0  17:05           0        1.84       0.259
  J19                  JUNCTION     0.000    0.271     0  16:59           0        11.5       0.087
  J9                   JUNCTION     0.000    0.075     0  18:30           0        2.92       0.252
  J14                  JUNCTION     0.000    0.110     0  20:30           0        3.63       0.183
  J17                  JUNCTION     0.000    0.033     0  19:00           0        1.08       0.361
  J7                   JUNCTION     0.000    0.127     0  18:22           0           1       0.252
  J11                  JUNCTION     0.000    0.304     0  18:26           0        2.08       0.905
  J18                  JUNCTION     0.000    0.202     0  17:07           0        1.51       0.228
  Out_to_WWTP          OUTFALL      0.000    0.271     0  17:01           0        11.5       0.000
  T5                   STORAGE      0.000    1.146     0  16:51           0        3.13      11.119
  T4                   STORAGE      0.000    0.430     0  17:12           0        2.27      15.117
  T6                   STORAGE      0.000    0.647     0  18:22           0        5.73      14.460
  T3                   STORAGE      0.000    0.521     0  18:34           0        6.74      19.354
  T2                   STORAGE      0.000    2.473     0  17:11           0        4.07      28.113
  T1                   STORAGE      0.000    2.280     0  16:53           0        14.4       3.114
  
  
  **********************
  Node Surcharge Summary
  **********************
  
  Surcharging occurs when water rises above the top of the highest conduit.
  ---------------------------------------------------------------------
                                               Max. Height   Min. Depth
                                   Hours       Above Crown    Below Rim
  Node                 Type      Surcharged         Meters       Meters
  ---------------------------------------------------------------------
  CSO7                 JUNCTION        0.99          0.945        0.000
  CSO9                 JUNCTION        0.89          1.682        0.000
  CSO10                JUNCTION        0.43          0.560        0.000
  J4                   JUNCTION        0.89          0.876        0.824
  
  
  *********************
  Node Flooding Summary
  *********************
  
  Flooding refers to all water that overflows a node, whether it ponds or not.
  --------------------------------------------------------------------------
                                                             Total   Maximum
                                 Maximum   Time of Max       Flood    Ponded
                        Hours       Rate    Occurrence      Volume     Depth
  Node                 Flooded       CMS   days hr:min    10^6 ltr    Meters
  --------------------------------------------------------------------------
  CSO7                    0.61     0.208      0  17:11       0.136     0.000
  CSO9                    0.10     0.022      0  18:16       0.003     0.000
  CSO10                   0.37     0.585      0  16:51       0.287     0.000
  T5                      1.88     0.272      0  17:05       0.661     0.000
  T4                      2.55     0.138      0  17:46       0.465     0.000
  T6                      2.40     0.587      0  18:23       1.573     0.000
  T2                      3.17     0.572      0  17:24       1.152     0.000
  T1                      2.00     1.240      0  16:59       2.114     0.000
  
  
  **********************
  Storage Volume Summary
  **********************
  
  --------------------------------------------------------------------------------------------------
                         Average     Avg  Evap Exfil       Maximum     Max    Time of Max    Maximum
                          Volume    Pcnt  Pcnt  Pcnt        Volume    Pcnt     Occurrence    Outflow
  Storage Unit           1000 m3    Full  Loss  Loss       1000 m3    Full    days hr:min        CMS
  --------------------------------------------------------------------------------------------------
  T5                       0.188      38     0     0         0.500     100       0  17:05      0.039
  T4                       0.210      42     0     0         0.500     100       0  17:46      0.028
  T6                       0.269      45     0     0         0.600     100       0  18:23      0.075
  T3                       0.734      28     0     0         2.060      79       0  20:24      0.110
  T2                       0.427      43     0     0         1.000     100       0  17:24      0.033
  T1                       0.231      33     0     0         0.700     100       0  16:59      0.271
  
  
  ***********************
  Outfall Loading Summary
  ***********************
  
  -----------------------------------------------------------
                         Flow       Avg       Max       Total
                         Freq      Flow      Flow      Volume
  Outfall Node           Pcnt       CMS       CMS    10^6 ltr
  -----------------------------------------------------------
  Out_to_WWTP           99.52     0.135     0.271      11.486
  -----------------------------------------------------------
  System                99.52     0.135     0.271      11.486
  
  
  ********************
  Link Flow Summary
  ********************
  
  -----------------------------------------------------------------------------
                                 Maximum  Time of Max   Maximum    Max/    Max/
                                  |Flow|   Occurrence   |Veloc|    Full    Full
  Link                 Type          CMS  days hr:min     m/sec    Flow   Depth
  -----------------------------------------------------------------------------
  C1                   CONDUIT     0.039     0  17:52      1.16    0.01    0.10
  C6                   CONDUIT     0.074     0  17:13      1.28    1.18    0.87
  C2                   CONDUIT     0.028     0  19:00      1.08    0.03    0.17
  C9                   CONDUIT     0.124     0  18:23      1.30    0.42    0.49
  C16                  CONDUIT     0.274     0  18:33      1.48    0.03    0.11
  C3                   CONDUIT     0.110     0  20:52      1.77    0.04    0.14
  C19                  CONDUIT     0.033     0  19:20      0.72    0.01    0.28
  C11                  CONDUIT     0.176     0  19:40      1.74    0.01    0.15
  C20                  CONDUIT     2.530     0  16:51      6.66    0.08    0.22
  C22                  CONDUIT     0.202     0  17:07      1.53    0.09    0.42
  C12                  CONDUIT     0.075     0  19:30      1.19    0.01    0.09
  C17                  CONDUIT     0.469     0  18:32      2.57    0.02    0.11
  C10                  CONDUIT     0.647     0  18:22      0.95    0.07    0.59
  C13                  CONDUIT     0.521     0  18:34      1.14    0.03    0.56
  C18                  CONDUIT     2.473     0  17:11      1.28    0.09    0.60
  C23                  CONDUIT     2.280     0  16:53      1.81    0.25    0.67
  C4                   CONDUIT     1.146     0  16:51      2.01    0.28    0.68
  C7                   CONDUIT     0.430     0  17:12      0.98    0.11    0.61
  C14                  CONDUIT     0.271     0  17:01      2.08    0.02    0.09
  C5                   CONDUIT     0.084     0  17:10      1.78    1.44    1.00
  C8                   CONDUIT     0.127     0  18:22      1.80    1.60    0.86
  C15                  CONDUIT     0.304     0  18:26      2.78    0.97    0.65
  C21                  CONDUIT     0.202     0  17:07      1.94    1.16    0.69
  V4                   ORIFICE     0.028     0  17:46                      0.35
  V5                   ORIFICE     0.039     0  17:05                      1.00
  V1                   ORIFICE     0.271     0  16:59                      1.00
  V6                   ORIFICE     0.075     0  18:30                      0.43
  V3                   ORIFICE     0.110     0  20:30                      0.65
  V2                   ORIFICE     0.033     0  19:00                      0.24
  
  
  ***************************
  Flow Classification Summary
  ***************************
  
  -------------------------------------------------------------------------------------
                      Adjusted    ---------- Fraction of Time in Flow Class ---------- 
                       /Actual         Up    Down  Sub   Sup   Up    Down  Norm  Inlet 
  Conduit               Length    Dry  Dry   Dry   Crit  Crit  Crit  Crit  Ltd   Ctrl  
  -------------------------------------------------------------------------------------
  C1                      1.00   0.00  0.00  0.00  0.03  0.97  0.00  0.00  0.97  0.00
  C6                      1.00   0.00  0.00  0.00  0.06  0.94  0.00  0.00  0.00  0.00
  C2                      1.00   0.00  0.00  0.00  0.46  0.54  0.00  0.00  0.98  0.00
  C9                      1.00   0.00  0.00  0.00  1.00  0.00  0.00  0.00  1.00  0.00
  C16                     1.00   0.00  0.01  0.00  0.80  0.19  0.00  0.00  0.70  0.00
  C3                      1.00   0.00  0.00  0.00  0.03  0.97  0.00  0.00  0.55  0.00
  C19                     1.00   0.00  0.00  0.00  1.00  0.00  0.00  0.00  1.00  0.00
  C11                     1.00   0.00  0.00  0.00  0.20  0.80  0.00  0.00  1.00  0.00
  C20                     1.00   0.00  0.00  0.00  0.75  0.25  0.00  0.00  0.99  0.00
  C22                     1.00   0.00  0.00  0.00  0.91  0.09  0.00  0.00  1.00  0.00
  C12                     1.00   0.00  0.00  0.00  0.46  0.54  0.00  0.00  0.89  0.00
  C17                     1.00   0.00  0.00  0.00  0.25  0.75  0.00  0.00  0.98  0.00
  C10                     1.00   0.00  0.00  0.00  0.96  0.04  0.00  0.00  0.98  0.00
  C13                     1.00   0.00  0.00  0.00  0.91  0.09  0.00  0.00  0.95  0.00
  C18                     1.00   0.00  0.00  0.00  0.97  0.03  0.00  0.00  0.99  0.00
  C23                     1.00   0.00  0.00  0.00  0.89  0.11  0.00  0.00  0.97  0.00
  C4                      1.00   0.00  0.00  0.00  0.97  0.03  0.00  0.00  0.98  0.00
  C7                      1.00   0.00  0.00  0.00  0.96  0.04  0.00  0.00  0.98  0.00
  C14                     1.00   0.00  0.00  0.00  0.00  1.00  0.00  0.00  0.73  0.00
  C5                      1.00   0.00  0.00  0.00  0.90  0.10  0.00  0.00  0.94  0.00
  C8                      1.00   0.00  0.00  0.00  0.11  0.89  0.00  0.00  0.00  0.00
  C15                     1.00   0.01  0.00  0.00  0.00  0.99  0.00  0.00  0.00  0.00
  C21                     1.00   0.00  0.00  0.00  0.00  1.00  0.00  0.00  0.00  0.00
  
  
  *************************
  Conduit Surcharge Summary
  *************************
  
  ----------------------------------------------------------------------------
                                                           Hours        Hours 
                         --------- Hours Full --------   Above Full   Capacity
  Conduit                Both Ends  Upstream  Dnstream   Normal Flow   Limited
  ----------------------------------------------------------------------------
  C6                          0.01      0.89      0.01      0.74         0.01
  C10                         0.01      0.01     16.09      0.01         0.01
  C13                         0.01      0.01      5.54      0.01         0.01
  C18                         0.01      0.01      6.51      0.01         0.01
  C23                         0.01      0.01      6.84      0.01         0.01
  C4                          0.01      0.01     13.41      0.01         0.01
  C7                          0.01      0.01     17.33      0.01         0.01
  C5                          0.89      0.99      1.08      1.08         0.86
  C8                          0.01      0.89      0.01      0.88         0.01
  C21                         0.01      0.43      0.01      0.40         0.01
  

  Analysis begun on:  Tue Sep 21 05:42:24 2021
  Analysis ended on:  Tue Sep 21 05:42:25 2021
  Total elapsed time: 00:00:01