
  EPA STORM WATER MANAGEMENT MODEL - VERSION 5.1 (Build 5.3.0.dev0)
  --------------------------------------------------------------

  WARNING 09: time series interval greater than recording interval for Rain Gage RG1
  WARNING 09: time series interval greater than recording interval for Rain Gage RG2
  WARNING 09: time series interval greater than recording interval for Rain Gage RG3
  WARNING 09: time series interval greater than recording interval for Rain Gage RG4
  
  *********************************************************
  NOTE: The summary statistics displayed in this report are
  based on results found at every computational time step,  
  not just on results from each reporting time step.
  *********************************************************
  
  ****************
  Analysis Options
  ****************
  Flow Units ............... CMS
  Process Models:
    Rainfall/Runoff ........ YES
    RDII ................... NO
    Snowmelt ............... NO
    Groundwater ............ NO
    Flow Routing ........... YES
    Ponding Allowed ........ YES
    Water Quality .......... NO
  Infiltration Method ...... HORTON
  Flow Routing Method ...... DYNWAVE
  Surcharge Method ......... EXTRAN
  Starting Date ............ 08/28/2015 00:00:00
  Ending Date .............. 08/28/2015 23:40:00
  Antecedent Dry Days ...... 0.0
  Report Time Step ......... 00:01:00
  Wet Time Step ............ 00:01:00
  Dry Time Step ............ 00:01:00
  Routing Time Step ........ 5.00 sec
  Variable Time Step ....... YES
  Maximum Trials ........... 8
  Number of Threads ........ 1
  Head Tolerance ........... 0.001500 m
  
  
  **************************        Volume         Depth
  Runoff Quantity Continuity     hectare-m            mm
  **************************     ---------       -------
  Total Precipitation ......         1.939        10.761
  Evaporation Loss .........         0.000         0.000
  Infiltration Loss ........         0.000         0.000
  Surface Runoff ...........         1.926        10.690
  Final Storage ............         0.015         0.083
  Continuity Error (%) .....        -0.107
  
  
  **************************        Volume        Volume
  Flow Routing Continuity        hectare-m      10^6 ltr
  **************************     ---------     ---------
  Dry Weather Inflow .......         0.758         7.576
  Wet Weather Inflow .......         1.926        19.263
  Groundwater Inflow .......         0.000         0.000
  RDII Inflow ..............         0.000         0.000
  External Inflow ..........         0.000         0.000
  External Outflow .........         1.595        15.946
  Flooding Loss ............         0.272         2.723
  Evaporation Loss .........         0.000         0.000
  Exfiltration Loss ........         0.000         0.000
  Initial Stored Volume ....         0.000         0.000
  Final Stored Volume ......         0.657         6.568
  Continuity Error (%) .....         5.969
  
  
  *************************
  Highest Continuity Errors
  *************************
  Node T2 (22.10%)
  Node T3 (12.15%)
  Node T4 (10.50%)
  Node T6 (10.47%)
  Node T5 (5.66%)
  
  
  ***************************
  Time-Step Critical Elements
  ***************************
  None
  
  
  ********************************
  Highest Flow Instability Indexes
  ********************************
  All links are stable.
  
  
  *************************
  Routing Time Step Summary
  *************************
  Minimum Time Step           :     4.50 sec
  Average Time Step           :     5.00 sec
  Maximum Time Step           :     5.00 sec
  Percent in Steady State     :     0.00
  Average Iterations per Step :     2.03
  Percent Not Converging      :     0.02
  
  
  ***************************
  Subcatchment Runoff Summary
  ***************************
  
  ------------------------------------------------------------------------------------------------------------------------------
                            Total      Total      Total      Total     Imperv       Perv      Total       Total     Peak  Runoff
                           Precip      Runon       Evap      Infil     Runoff     Runoff     Runoff      Runoff   Runoff   Coeff
  Subcatchment                 mm         mm         mm         mm         mm         mm         mm    10^6 ltr      CMS
  ------------------------------------------------------------------------------------------------------------------------------
  SC01                       9.00       0.00       0.00       0.00       8.95       0.00       8.95        2.95     0.30   0.994
  SC02                      11.98       0.00       0.00       0.00      11.93       0.00      11.93        2.71     0.37   0.996
  SC03                      13.56       0.00       0.00       0.00      13.54       0.00      13.54        2.44     0.58   0.998
  SC04                      11.98       0.00       0.00       0.00      11.89       0.00      11.89        0.82     0.07   0.992
  SC05                       9.00       0.00       0.00       0.00       8.94       0.00       8.94        1.40     0.13   0.994
  SC06                       9.13       0.00       0.00       0.00       9.00       0.00       9.00        2.93     0.24   0.985
  SC07                      11.98       0.00       0.00       0.00      11.89       0.00      11.89        0.56     0.05   0.992
  SC08                      13.56       0.00       0.00       0.00      13.49       0.00      13.49        3.78     0.53   0.995
  SC09                       9.13       0.00       0.00       0.00       9.04       0.00       9.04        0.62     0.07   0.991
  SC010                      9.00       0.00       0.00       0.00       8.93       0.00       8.93        1.05     0.09   0.993
  
  
  ******************
  Node Depth Summary
  ******************
  
  ---------------------------------------------------------------------------------
                                 Average  Maximum  Maximum  Time of Max    Reported
                                   Depth    Depth      HGL   Occurrence   Max Depth
  Node                 Type       Meters   Meters   Meters  days hr:min      Meters
  ---------------------------------------------------------------------------------
  J1                   JUNCTION     0.06     0.13    34.13     0  10:57        0.13
  J3                   JUNCTION     0.10     0.13    18.13     0  16:30        0.13
  CSO7                 JUNCTION     0.08     0.22    34.22     0  12:17        0.22
  J5                   JUNCTION     0.05     0.12    32.12     0  12:22        0.12
  CSO9                 JUNCTION     0.08     0.27    40.27     0  14:32        0.26
  J8                   JUNCTION     0.08     0.18    36.18     0  14:37        0.18
  CSO8                 JUNCTION     0.11     2.00    34.00     0  13:50        2.00
  J10                  JUNCTION     0.08     0.27    29.27     0  13:54        0.27
  J13                  JUNCTION     0.05     0.16    29.16     0  12:17        0.16
  J15                  JUNCTION     0.15     0.23    15.23     0  11:24        0.23
  J16                  JUNCTION     0.05     0.13    30.13     0  10:57        0.13
  CSO10                JUNCTION     0.09     0.24    30.24     0  10:57        0.24
  J12                  JUNCTION     0.44     1.02    27.02     0  14:33        1.02
  J4                   JUNCTION     0.10     0.24    33.24     0  12:23        0.24
  J6                   JUNCTION     0.06     0.07    25.07     0  13:50        0.07
  J2                   JUNCTION     0.06     0.07    25.07     0  13:16        0.07
  J19                  JUNCTION     0.14     0.17     8.17     0  13:06        0.17
  J9                   JUNCTION     0.08     0.11    29.11     0  12:00        0.11
  J14                  JUNCTION     0.11     0.15    20.15     0  17:31        0.15
  J17                  JUNCTION     0.06     0.08    20.08     0  13:39        0.08
  J7                   JUNCTION     0.06     0.16    39.16     0  14:38        0.16
  J11                  JUNCTION     0.08     0.28    31.28     0  13:54        0.28
  J18                  JUNCTION     0.04     0.10    29.10     0  01:48        0.10
  Out_to_WWTP          OUTFALL      0.14     0.17     6.17     0  13:06        0.17
  T5                   STORAGE      2.34     3.86    30.86     0  13:14        3.86
  T4                   STORAGE      3.45     5.00    32.00     0  12:36        5.00
  T6                   STORAGE      3.61     5.00    36.00     0  11:36        5.00
  T3                   STORAGE      3.31     5.00    27.00     0  14:16        5.00
  T2                   STORAGE      3.72     5.00    26.00     0  12:21        5.00
  T1                   STORAGE      2.57     4.56    14.56     0  13:05        4.56
  
  
  *******************
  Node Inflow Summary
  *******************
  
  -------------------------------------------------------------------------------------------------
                                  Maximum  Maximum                  Lateral       Total        Flow
                                  Lateral    Total  Time of Max      Inflow      Inflow     Balance
                                   Inflow   Inflow   Occurrence      Volume      Volume       Error
  Node                 Type           CMS      CMS  days hr:min    10^6 ltr    10^6 ltr     Percent
  -------------------------------------------------------------------------------------------------
  J1                   JUNCTION     0.154    0.154     0  10:56        2.49        2.49      -0.108
  J3                   JUNCTION     0.000    0.185     0  14:21           0        9.69       0.258
  CSO7                 JUNCTION     0.061    0.061     0  12:16        1.13        1.13       0.014
  J5                   JUNCTION     0.076    0.124     0  12:21        1.07         2.2      -0.074
  CSO9                 JUNCTION     0.078    0.078     0  14:31        1.01        1.01       0.005
  J8                   JUNCTION     0.266    0.309     0  14:36        4.76        5.76      -0.059
  CSO8                 JUNCTION     0.545    0.545     0  13:51        4.23        4.23      -0.019
  J10                  JUNCTION     0.595    0.864     0  13:51        3.19         7.4      -0.128
  J13                  JUNCTION     0.394    0.394     0  12:16        3.62        3.62      -0.252
  J15                  JUNCTION     0.000    0.478     0  11:22           0        16.6       0.340
  J16                  JUNCTION     0.324    0.324     0  10:56        4.03        4.03      -0.083
  CSO10                JUNCTION     0.089    0.089     0  01:46        1.32        1.32      -0.001
  J12                  JUNCTION     0.000    0.842     0  13:54           0        10.9       3.682
  J4                   JUNCTION     0.000    0.059     0  12:17           0        1.13       0.099
  J6                   JUNCTION     0.000    0.028     0  13:10           0        1.52       0.231
  J2                   JUNCTION     0.000    0.034     0  13:14           0        2.22       0.149
  J19                  JUNCTION     0.000    0.258     0  13:05           0          16       0.054
  J9                   JUNCTION     0.000    0.075     0  11:36           0        3.49       0.178
  J14                  JUNCTION     0.000    0.124     0  14:20           0        5.96       0.064
  J17                  JUNCTION     0.000    0.033     0  13:20           0        1.58       0.358
  J7                   JUNCTION     0.000    0.073     0  14:32           0        1.01       0.107
  J11                  JUNCTION     0.000    0.480     0  13:52           0        4.22       0.061
  J18                  JUNCTION     0.000    0.085     0  01:46           0        1.32      -0.054
  Out_to_WWTP          OUTFALL      0.000    0.258     0  13:06           0        15.9       0.000
  T5                   STORAGE      0.000    0.138     0  10:57           0        2.49       5.995
  T4                   STORAGE      0.000    0.121     0  12:22           0         2.2      11.728
  T6                   STORAGE      0.000    0.299     0  14:37           0        5.77      11.696
  T3                   STORAGE      0.000    0.672     0  14:22           0        10.5      13.828
  T2                   STORAGE      0.000    0.354     0  12:17           0        3.63      28.365
  T1                   STORAGE      0.000    0.455     0  11:24           0        16.5       2.013
  
  
  **********************
  Node Surcharge Summary
  **********************
  
  Surcharging occurs when water rises above the top of the highest conduit.
  ---------------------------------------------------------------------
                                               Max. Height   Min. Depth
                                   Hours       Above Crown    Below Rim
  Node                 Type      Surcharged         Meters       Meters
  ---------------------------------------------------------------------
  CSO8                 JUNCTION        0.27          1.547        0.000
  
  
  *********************
  Node Flooding Summary
  *********************
  
  Flooding refers to all water that overflows a node, whether it ponds or not.
  --------------------------------------------------------------------------
                                                             Total   Maximum
                                 Maximum   Time of Max       Flood    Ponded
                        Hours       Rate    Occurrence      Volume     Depth
  Node                 Flooded       CMS   days hr:min    10^6 ltr    Meters
  --------------------------------------------------------------------------
  CSO8                    0.04     0.100      0  13:50       0.006     0.000
  T4                      1.69     0.081      0  12:36       0.139     0.000
  T6                      5.32     0.270      0  14:38       1.251     0.000
  T3                      1.39     0.549      0  14:22       0.907     0.000
  T2                      2.47     0.281      0  12:21       0.420     0.000
  
  
  **********************
  Storage Volume Summary
  **********************
  
  --------------------------------------------------------------------------------------------------
                         Average     Avg  Evap Exfil       Maximum     Max    Time of Max    Maximum
                          Volume    Pcnt  Pcnt  Pcnt        Volume    Pcnt     Occurrence    Outflow
  Storage Unit           1000 m3    Full  Loss  Loss       1000 m3    Full    days hr:min        CMS
  --------------------------------------------------------------------------------------------------
  T5                       0.234      47     0     0         0.386      77       0  13:14      0.034
  T4                       0.345      69     0     0         0.500     100       0  12:36      0.028
  T6                       0.433      72     0     0         0.600     100       0  11:36      0.075
  T3                       1.722      66     0     0         2.600     100       0  14:16      0.124
  T2                       0.744      74     0     0         1.000     100       0  12:21      0.033
  T1                       0.360      51     0     0         0.638      91       0  13:05      0.258
  
  
  ***********************
  Outfall Loading Summary
  ***********************
  
  -----------------------------------------------------------
                         Flow       Avg       Max       Total
                         Freq      Flow      Flow      Volume
  Outfall Node           Pcnt       CMS       CMS    10^6 ltr
  -----------------------------------------------------------
  Out_to_WWTP           99.43     0.188     0.258      15.946
  -----------------------------------------------------------
  System                99.43     0.188     0.258      15.946
  
  
  ********************
  Link Flow Summary
  ********************
  
  -----------------------------------------------------------------------------
                                 Maximum  Time of Max   Maximum    Max/    Max/
                                  |Flow|   Occurrence   |Veloc|    Full    Full
  Link                 Type          CMS  days hr:min     m/sec    Flow   Depth
  -----------------------------------------------------------------------------
  C1                   CONDUIT     0.034     0  13:16      0.98    0.01    0.10
  C6                   CONDUIT     0.054     0  12:24      1.26    0.86    0.59
  C2                   CONDUIT     0.028     0  13:50      1.03    0.03    0.17
  C9                   CONDUIT     0.063     0  14:38      1.07    0.21    0.34
  C16                  CONDUIT     0.432     0  13:54      1.66    0.04    0.14
  C3                   CONDUIT     0.124     0  14:22      1.87    0.05    0.14
  C19                  CONDUIT     0.033     0  13:39      0.75    0.01    0.14
  C11                  CONDUIT     0.183     0  16:30      1.78    0.01    0.09
  C20                  CONDUIT     0.288     0  10:57      2.59    0.01    0.09
  C22                  CONDUIT     0.080     0  01:48      1.20    0.04    0.21
  C12                  CONDUIT     0.075     0  12:00      1.04    0.01    0.28
  C17                  CONDUIT     0.806     0  13:54      2.63    0.04    0.31
  C10                  CONDUIT     0.299     0  14:37      1.29    0.03    0.56
  C13                  CONDUIT     0.672     0  14:22      2.55    0.04    0.76
  C18                  CONDUIT     0.354     0  12:17      2.41    0.01    0.54
  C23                  CONDUIT     0.455     0  11:24      1.77    0.05    0.58
  C4                   CONDUIT     0.138     0  10:57      1.68    0.03    0.56
  C7                   CONDUIT     0.121     0  12:22      1.60    0.03    0.56
  C14                  CONDUIT     0.258     0  13:06      2.05    0.01    0.08
  C5                   CONDUIT     0.059     0  12:17      1.33    1.01    0.85
  C8                   CONDUIT     0.073     0  14:32      1.46    0.92    0.62
  C15                  CONDUIT     0.480     0  13:52      3.58    1.53    0.81
  C21                  CONDUIT     0.085     0  01:46      1.63    0.49    0.39
  V4                   ORIFICE     0.028     0  13:10                      0.35
  V5                   ORIFICE     0.034     0  13:14                      1.00
  V1                   ORIFICE     0.258     0  13:05                      1.00
  V6                   ORIFICE     0.075     0  11:36                      0.43
  V3                   ORIFICE     0.124     0  14:20                      0.65
  V2                   ORIFICE     0.033     0  13:20                      0.24
  
  
  ***************************
  Flow Classification Summary
  ***************************
  
  -------------------------------------------------------------------------------------
                      Adjusted    ---------- Fraction of Time in Flow Class ---------- 
                       /Actual         Up    Down  Sub   Sup   Up    Down  Norm  Inlet 
  Conduit               Length    Dry  Dry   Dry   Crit  Crit  Crit  Crit  Ltd   Ctrl  
  -------------------------------------------------------------------------------------
  C1                      1.00   0.00  0.00  0.00  0.32  0.68  0.00  0.00  0.97  0.00
  C6                      1.00   0.00  0.00  0.00  0.01  0.99  0.00  0.00  0.00  0.00
  C2                      1.00   0.00  0.00  0.00  0.50  0.49  0.00  0.00  0.98  0.00
  C9                      1.00   0.00  0.00  0.00  1.00  0.00  0.00  0.00  1.00  0.00
  C16                     1.00   0.00  0.01  0.00  0.35  0.63  0.00  0.00  0.31  0.00
  C3                      1.00   0.00  0.00  0.00  0.02  0.98  0.00  0.00  0.40  0.00
  C19                     1.00   0.00  0.00  0.00  1.00  0.00  0.00  0.00  1.00  0.00
  C11                     1.00   0.00  0.00  0.00  0.13  0.87  0.00  0.00  1.00  0.00
  C20                     1.00   0.00  0.00  0.00  0.71  0.29  0.00  0.00  0.99  0.00
  C22                     1.00   0.00  0.00  0.00  0.94  0.06  0.00  0.00  1.00  0.00
  C12                     1.00   0.00  0.00  0.00  0.85  0.14  0.00  0.00  0.97  0.00
  C17                     1.00   0.00  0.00  0.00  0.51  0.49  0.00  0.00  0.97  0.00
  C10                     1.00   0.00  0.00  0.00  0.97  0.03  0.00  0.00  0.97  0.00
  C13                     1.00   0.00  0.00  0.00  0.96  0.04  0.00  0.00  0.48  0.00
  C18                     1.00   0.00  0.00  0.00  0.97  0.03  0.00  0.00  0.97  0.00
  C23                     1.00   0.00  0.00  0.00  0.97  0.03  0.00  0.00  0.97  0.00
  C4                      1.00   0.00  0.00  0.00  0.97  0.03  0.00  0.00  0.98  0.00
  C7                      1.00   0.00  0.00  0.00  0.97  0.03  0.00  0.00  0.97  0.00
  C14                     1.00   0.00  0.00  0.00  0.00  1.00  0.00  0.00  0.70  0.00
  C5                      1.00   0.00  0.00  0.00  0.92  0.08  0.00  0.00  0.97  0.00
  C8                      1.00   0.00  0.00  0.00  0.08  0.92  0.00  0.00  0.01  0.00
  C15                     1.00   0.01  0.00  0.00  0.00  0.99  0.00  0.00  0.01  0.00
  C21                     1.00   0.00  0.00  0.00  0.00  1.00  0.00  0.00  0.00  0.00
  
  
  *************************
  Conduit Surcharge Summary
  *************************
  
  ----------------------------------------------------------------------------
                                                           Hours        Hours 
                         --------- Hours Full --------   Above Full   Capacity
  Conduit                Both Ends  Upstream  Dnstream   Normal Flow   Limited
  ----------------------------------------------------------------------------
  C10                         0.01      0.01     21.28      0.01         0.01
  C13                         0.01      0.01     16.54      0.01         0.01
  C18                         0.01      0.01     21.47      0.01         0.01
  C23                         0.01      0.01     22.04      0.01         0.01
  C4                          0.01      0.01     22.08      0.01         0.01
  C7                          0.01      0.01     22.09      0.01         0.01
  C5                          0.01      0.01      0.01      0.02         0.01
  C15                         0.01      0.27      0.01      0.30         0.01
  

  Analysis begun on:  Tue Sep 21 05:45:14 2021
  Analysis ended on:  Tue Sep 21 05:45:15 2021
  Total elapsed time: 00:00:01