
  EPA STORM WATER MANAGEMENT MODEL - VERSION 5.1 (Build 5.3.0.dev0)
  --------------------------------------------------------------

  WARNING 09: time series interval greater than recording interval for Rain Gage RG1
  WARNING 09: time series interval greater than recording interval for Rain Gage RG2
  WARNING 09: time series interval greater than recording interval for Rain Gage RG3
  WARNING 09: time series interval greater than recording interval for Rain Gage RG4
  
  *********************************************************
  NOTE: The summary statistics displayed in this report are
  based on results found at every computational time step,  
  not just on results from each reporting time step.
  *********************************************************
  
  ****************
  Analysis Options
  ****************
  Flow Units ............... CMS
  Process Models:
    Rainfall/Runoff ........ YES
    RDII ................... NO
    Snowmelt ............... NO
    Groundwater ............ NO
    Flow Routing ........... YES
    Ponding Allowed ........ YES
    Water Quality .......... NO
  Infiltration Method ...... HORTON
  Flow Routing Method ...... DYNWAVE
  Surcharge Method ......... EXTRAN
  Starting Date ............ 08/28/2015 00:00:00
  Ending Date .............. 08/28/2015 23:40:00
  Antecedent Dry Days ...... 0.0
  Report Time Step ......... 00:01:00
  Wet Time Step ............ 00:01:00
  Dry Time Step ............ 00:01:00
  Routing Time Step ........ 5.00 sec
  Variable Time Step ....... YES
  Maximum Trials ........... 8
  Number of Threads ........ 1
  Head Tolerance ........... 0.001500 m
  
  
  **************************        Volume         Depth
  Runoff Quantity Continuity     hectare-m            mm
  **************************     ---------       -------
  Total Precipitation ......         2.647        14.689
  Evaporation Loss .........         0.000         0.000
  Infiltration Loss ........         0.000         0.000
  Surface Runoff ...........         2.633        14.613
  Final Storage ............         0.019         0.104
  Continuity Error (%) .....        -0.186
  
  
  **************************        Volume        Volume
  Flow Routing Continuity        hectare-m      10^6 ltr
  **************************     ---------     ---------
  Dry Weather Inflow .......         0.758         7.576
  Wet Weather Inflow .......         2.633        26.332
  Groundwater Inflow .......         0.000         0.000
  RDII Inflow ..............         0.000         0.000
  External Inflow ..........         0.000         0.000
  External Outflow .........         1.799        17.991
  Flooding Loss ............         0.691         6.909
  Evaporation Loss .........         0.000         0.000
  Exfiltration Loss ........         0.000         0.000
  Initial Stored Volume ....         0.000         0.000
  Final Stored Volume ......         0.709         7.088
  Continuity Error (%) .....         5.665
  
  
  *************************
  Highest Continuity Errors
  *************************
  Node T2 (18.43%)
  Node T4 (11.44%)
  Node T3 (10.16%)
  Node T5 (8.28%)
  Node T6 (7.72%)
  
  
  ***************************
  Time-Step Critical Elements
  ***************************
  None
  
  
  ********************************
  Highest Flow Instability Indexes
  ********************************
  All links are stable.
  
  
  *************************
  Routing Time Step Summary
  *************************
  Minimum Time Step           :     2.12 sec
  Average Time Step           :     5.00 sec
  Maximum Time Step           :     5.00 sec
  Percent in Steady State     :     0.00
  Average Iterations per Step :     2.13
  Percent Not Converging      :     0.24
  
  
  ***************************
  Subcatchment Runoff Summary
  ***************************
  
  ------------------------------------------------------------------------------------------------------------------------------
                            Total      Total      Total      Total     Imperv       Perv      Total       Total     Peak  Runoff
                           Precip      Runon       Evap      Infil     Runoff     Runoff     Runoff      Runoff   Runoff   Coeff
  Subcatchment                 mm         mm         mm         mm         mm         mm         mm    10^6 ltr      CMS
  ------------------------------------------------------------------------------------------------------------------------------
  SC01                      13.80       0.00       0.00       0.00      13.74       0.00      13.74        4.53     0.65   0.995
  SC02                      16.84       0.00       0.00       0.00      16.77       0.00      16.77        3.81     0.83   0.996
  SC03                      17.90       0.00       0.00       0.00      17.92       0.00      17.92        3.23     1.94   1.001
  SC04                      16.84       0.00       0.00       0.00      16.64       0.00      16.64        1.15     0.15   0.988
  SC05                      13.80       0.00       0.00       0.00      13.73       0.00      13.73        2.14     0.29   0.995
  SC06                      10.43       0.00       0.00       0.00      10.31       0.00      10.31        3.36     0.39   0.988
  SC07                      16.84       0.00       0.00       0.00      16.64       0.00      16.64        0.79     0.10   0.988
  SC08                      17.90       0.00       0.00       0.00      17.85       0.00      17.85        5.00     1.47   0.997
  SC09                      10.43       0.00       0.00       0.00      10.35       0.00      10.35        0.71     0.11   0.992
  SC010                     13.80       0.00       0.00       0.00      13.70       0.00      13.70        1.61     0.20   0.993
  
  
  ******************
  Node Depth Summary
  ******************
  
  ---------------------------------------------------------------------------------
                                 Average  Maximum  Maximum  Time of Max    Reported
                                   Depth    Depth      HGL   Occurrence   Max Depth
  Node                 Type       Meters   Meters   Meters  days hr:min      Meters
  ---------------------------------------------------------------------------------
  J1                   JUNCTION     0.06     0.17    34.17     0  01:12        0.17
  J3                   JUNCTION     0.11     0.13    18.13     0  13:40        0.13
  CSO7                 JUNCTION     0.10     1.20    35.20     0  11:51        1.20
  J5                   JUNCTION     0.06     0.15    32.15     0  11:57        0.15
  CSO9                 JUNCTION     0.09     1.98    41.98     0  01:11        1.39
  J8                   JUNCTION     0.08     0.22    36.22     0  02:27        0.22
  CSO8                 JUNCTION     0.14     2.00    34.00     0  11:25        2.00
  J10                  JUNCTION     0.08     0.39    29.39     0  11:27        0.39
  J13                  JUNCTION     0.06     0.23    29.23     0  11:56        0.23
  J15                  JUNCTION     0.16     0.29    15.29     0  02:29        0.29
  J16                  JUNCTION     0.06     0.19    30.19     0  01:12        0.19
  CSO10                JUNCTION     0.10     0.76    30.76     0  02:27        0.48
  J12                  JUNCTION     0.58     1.07    27.07     0  11:47        1.07
  J4                   JUNCTION     0.11     1.42    34.42     0  11:56        0.75
  J6                   JUNCTION     0.06     0.07    25.07     0  12:50        0.07
  J2                   JUNCTION     0.07     0.08    25.08     0  03:31        0.08
  J19                  JUNCTION     0.15     0.17     8.17     0  02:35        0.17
  J9                   JUNCTION     0.09     0.11    29.11     0  05:39        0.11
  J14                  JUNCTION     0.12     0.15    20.15     0  16:01        0.15
  J17                  JUNCTION     0.06     0.08    20.08     0  12:20        0.08
  J7                   JUNCTION     0.06     0.19    39.19     0  01:18        0.19
  J11                  JUNCTION     0.08     0.30    31.30     0  11:43        0.30
  J18                  JUNCTION     0.05     0.15    29.15     0  02:29        0.15
  Out_to_WWTP          OUTFALL      0.15     0.17     6.17     0  19:51        0.17
  T5                   STORAGE      3.29     5.00    32.00     0  03:05        5.00
  T4                   STORAGE      3.72     5.00    32.00     0  12:15        5.00
  T6                   STORAGE      4.12     5.00    36.00     0  02:34        5.00
  T3                   STORAGE      4.13     5.00    27.00     0  11:40        5.00
  T2                   STORAGE      3.90     5.00    26.00     0  11:58        5.00
  T1                   STORAGE      3.22     5.00    15.00     0  02:33        5.00
  
  
  *******************
  Node Inflow Summary
  *******************
  
  -------------------------------------------------------------------------------------------------
                                  Maximum  Maximum                  Lateral       Total        Flow
                                  Lateral    Total  Time of Max      Inflow      Inflow     Balance
                                   Inflow   Inflow   Occurrence      Volume      Volume       Error
  Node                 Type           CMS      CMS  days hr:min    10^6 ltr    10^6 ltr     Percent
  -------------------------------------------------------------------------------------------------
  J1                   JUNCTION     0.291    0.291     0  01:11        3.23        3.23      -0.076
  J3                   JUNCTION     0.000    0.185     0  13:22           0        10.9       0.338
  CSO7                 JUNCTION     0.115    0.115     0  11:56        1.36        1.36       0.024
  J5                   JUNCTION     0.154    0.221     0  11:56         1.4        2.74      -0.015
  CSO9                 JUNCTION     0.107    0.107     0  01:16         1.1         1.1      -0.034
  J8                   JUNCTION     0.398    0.484     0  02:26        5.19        6.28      -0.107
  CSO8                 JUNCTION     1.478    1.478     0  11:26        5.45        5.45      -0.053
  J10                  JUNCTION     1.954    2.167     0  11:26        3.98        8.98      -0.153
  J13                  JUNCTION     0.845    0.845     0  11:56        4.72        4.72      -0.140
  J15                  JUNCTION     0.000    0.814     0  02:27           0        19.9       0.407
  J16                  JUNCTION     0.649    0.649     0  01:11        5.61        5.61      -0.101
  CSO10                JUNCTION     0.196    0.196     0  02:26        1.88        1.88      -0.011
  J12                  JUNCTION     0.000    1.708     0  11:27           0        13.2       3.484
  J4                   JUNCTION     0.000    0.081     0  11:55           0        1.34       0.049
  J6                   JUNCTION     0.000    0.028     0  12:15           0        1.57       0.251
  J2                   JUNCTION     0.000    0.039     0  03:05           0        2.65       0.163
  J19                  JUNCTION     0.000    0.271     0  02:33           0          18       0.057
  J9                   JUNCTION     0.000    0.075     0  13:30           0         4.2       0.386
  J14                  JUNCTION     0.000    0.124     0  11:40           0        6.64       0.102
  J17                  JUNCTION     0.000    0.033     0  11:58           0        1.64       0.357
  J7                   JUNCTION     0.000    0.107     0  01:16           0         1.1       0.098
  J11                  JUNCTION     0.000    0.486     0  11:43           0           5       0.088
  J18                  JUNCTION     0.000    0.180     0  02:27           0        1.88      -0.032
  Out_to_WWTP          OUTFALL      0.000    0.271     0  02:35           0          18       0.000
  T5                   STORAGE      0.000    0.264     0  01:12           0        3.24       9.028
  T4                   STORAGE      0.000    0.210     0  11:57           0        2.74      12.916
  T6                   STORAGE      0.000    0.465     0  02:27           0        6.29       8.363
  T3                   STORAGE      0.000    1.268     0  11:30           0        12.7      11.308
  T2                   STORAGE      0.000    0.768     0  11:56           0        4.73      22.600
  T1                   STORAGE      0.000    0.744     0  02:29           0        19.9       2.451
  
  
  **********************
  Node Surcharge Summary
  **********************
  
  Surcharging occurs when water rises above the top of the highest conduit.
  ---------------------------------------------------------------------
                                               Max. Height   Min. Depth
                                   Hours       Above Crown    Below Rim
  Node                 Type      Surcharged         Meters       Meters
  ---------------------------------------------------------------------
  CSO7                 JUNCTION        0.56          0.945        0.000
  CSO9                 JUNCTION        0.54          1.657        0.025
  CSO8                 JUNCTION        0.65          1.547        0.000
  CSO10                JUNCTION        0.03          0.321        0.239
  J4                   JUNCTION        0.39          1.123        0.577
  
  
  *********************
  Node Flooding Summary
  *********************
  
  Flooding refers to all water that overflows a node, whether it ponds or not.
  --------------------------------------------------------------------------
                                                             Total   Maximum
                                 Maximum   Time of Max       Flood    Ponded
                        Hours       Rate    Occurrence      Volume     Depth
  Node                 Flooded       CMS   days hr:min    10^6 ltr    Meters
  --------------------------------------------------------------------------
  CSO7                    0.23     0.046      0  11:56       0.015     0.000
  CSO8                    0.35     1.018      0  11:26       0.446     0.000
  T5                      0.43     0.087      0  03:05       0.054     0.000
  T4                      4.71     0.105      0  12:15       0.426     0.000
  T6                      3.07     0.404      0  02:48       1.275     0.000
  T3                      3.47     1.057      0  11:50       2.389     0.000
  T2                      5.54     0.650      0  11:58       1.305     0.000
  T1                      1.23     0.461      0  02:33       0.999     0.000
  
  
  **********************
  Storage Volume Summary
  **********************
  
  --------------------------------------------------------------------------------------------------
                         Average     Avg  Evap Exfil       Maximum     Max    Time of Max    Maximum
                          Volume    Pcnt  Pcnt  Pcnt        Volume    Pcnt     Occurrence    Outflow
  Storage Unit           1000 m3    Full  Loss  Loss       1000 m3    Full    days hr:min        CMS
  --------------------------------------------------------------------------------------------------
  T5                       0.329      66     0     0         0.500     100       0  03:05      0.039
  T4                       0.372      74     0     0         0.500     100       0  12:15      0.028
  T6                       0.494      82     0     0         0.600     100       0  02:34      0.075
  T3                       2.146      83     0     0         2.600     100       0  11:40      0.124
  T2                       0.781      78     0     0         1.000     100       0  11:58      0.033
  T1                       0.451      64     0     0         0.700     100       0  02:33      0.271
  
  
  ***********************
  Outfall Loading Summary
  ***********************
  
  -----------------------------------------------------------
                         Flow       Avg       Max       Total
                         Freq      Flow      Flow      Volume
  Outfall Node           Pcnt       CMS       CMS    10^6 ltr
  -----------------------------------------------------------
  Out_to_WWTP           99.43     0.212     0.271      17.991
  -----------------------------------------------------------
  System                99.43     0.212     0.271      17.991
  
  
  ********************
  Link Flow Summary
  ********************
  
  -----------------------------------------------------------------------------
                                 Maximum  Time of Max   Maximum    Max/    Max/
                                  |Flow|   Occurrence   |Veloc|    Full    Full
  Link                 Type          CMS  days hr:min     m/sec    Flow   Depth
  -----------------------------------------------------------------------------
  C1                   CONDUIT     0.039     0  03:31      1.09    0.01    0.10
  C6                   CONDUIT     0.071     0  11:57      1.29    1.13    0.76
  C2                   CONDUIT     0.028     0  12:50      1.03    0.03    0.17
  C9                   CONDUIT     0.093     0  01:18      1.24    0.32    0.41
  C16                  CONDUIT     0.485     0  11:38      1.80    0.05    0.16
  C3                   CONDUIT     0.124     0  16:02      1.87    0.05    0.14
  C19                  CONDUIT     0.033     0  12:20      0.74    0.01    0.17
  C11                  CONDUIT     0.184     0  13:40      1.79    0.01    0.10
  C20                  CONDUIT     0.588     0  01:12      3.27    0.02    0.12
  C22                  CONDUIT     0.170     0  02:29      1.58    0.08    0.28
  C12                  CONDUIT     0.075     0  14:20      1.14    0.01    0.29
  C17                  CONDUIT     1.658     0  11:27      3.45    0.08    0.33
  C10                  CONDUIT     0.465     0  02:27      1.68    0.05    0.57
  C13                  CONDUIT     1.268     0  11:30      1.89    0.07    0.77
  C18                  CONDUIT     0.768     0  11:56      1.48    0.03    0.56
  C23                  CONDUIT     0.744     0  02:29      2.00    0.08    0.60
  C4                   CONDUIT     0.264     0  01:12      2.24    0.06    0.59
  C7                   CONDUIT     0.210     0  11:57      1.11    0.05    0.58
  C14                  CONDUIT     0.271     0  02:35      2.08    0.02    0.09
  C5                   CONDUIT     0.081     0  11:55      1.61    1.38    1.00
  C8                   CONDUIT     0.107     0  01:16      1.67    1.34    0.81
  C15                  CONDUIT     0.486     0  11:43      3.72    1.55    0.83
  C21                  CONDUIT     0.180     0  02:27      1.79    1.03    0.67
  V4                   ORIFICE     0.028     0  12:15                      0.35
  V5                   ORIFICE     0.039     0  03:05                      1.00
  V1                   ORIFICE     0.271     0  02:33                      1.00
  V6                   ORIFICE     0.075     0  13:30                      0.43
  V3                   ORIFICE     0.124     0  11:40                      0.65
  V2                   ORIFICE     0.033     0  11:58                      0.24
  
  
  ***************************
  Flow Classification Summary
  ***************************
  
  -------------------------------------------------------------------------------------
                      Adjusted    ---------- Fraction of Time in Flow Class ---------- 
                       /Actual         Up    Down  Sub   Sup   Up    Down  Norm  Inlet 
  Conduit               Length    Dry  Dry   Dry   Crit  Crit  Crit  Crit  Ltd   Ctrl  
  -------------------------------------------------------------------------------------
  C1                      1.00   0.00  0.00  0.00  0.25  0.75  0.00  0.00  0.98  0.00
  C6                      1.00   0.00  0.00  0.00  0.05  0.95  0.00  0.00  0.00  0.00
  C2                      1.00   0.00  0.00  0.00  0.60  0.39  0.00  0.00  0.98  0.00
  C9                      1.00   0.00  0.00  0.00  0.99  0.01  0.00  0.00  1.00  0.00
  C16                     1.00   0.00  0.00  0.00  0.41  0.59  0.00  0.00  0.37  0.00
  C3                      1.00   0.00  0.00  0.00  0.01  0.99  0.00  0.00  0.42  0.00
  C19                     1.00   0.00  0.00  0.00  1.00  0.00  0.00  0.00  1.00  0.00
  C11                     1.00   0.00  0.00  0.00  0.16  0.84  0.00  0.00  1.00  0.00
  C20                     1.00   0.00  0.00  0.00  0.76  0.24  0.00  0.00  0.99  0.00
  C22                     1.00   0.00  0.00  0.00  0.89  0.11  0.00  0.00  1.00  0.00
  C12                     1.00   0.00  0.00  0.00  0.92  0.08  0.00  0.00  0.96  0.00
  C17                     1.00   0.00  0.00  0.00  0.75  0.25  0.00  0.00  0.98  0.00
  C10                     1.00   0.00  0.00  0.00  0.96  0.04  0.00  0.00  0.98  0.00
  C13                     1.00   0.00  0.00  0.00  0.96  0.04  0.00  0.00  0.25  0.00
  C18                     1.00   0.00  0.00  0.00  0.97  0.03  0.00  0.00  0.99  0.00
  C23                     1.00   0.00  0.00  0.00  0.98  0.02  0.00  0.00  0.98  0.00
  C4                      1.00   0.00  0.00  0.00  0.98  0.02  0.00  0.00  0.98  0.00
  C7                      1.00   0.00  0.00  0.00  0.96  0.04  0.00  0.00  0.98  0.00
  C14                     1.00   0.00  0.00  0.00  0.00  1.00  0.00  0.00  0.57  0.00
  C5                      1.00   0.00  0.00  0.00  0.89  0.11  0.00  0.00  0.94  0.00
  C8                      1.00   0.00  0.00  0.00  0.14  0.86  0.00  0.00  0.01  0.00
  C15                     1.00   0.00  0.00  0.00  0.00  1.00  0.00  0.00  0.01  0.00
  C21                     1.00   0.00  0.00  0.00  0.00  1.00  0.00  0.00  0.00  0.00
  
  
  *************************
  Conduit Surcharge Summary
  *************************
  
  ----------------------------------------------------------------------------
                                                           Hours        Hours 
                         --------- Hours Full --------   Above Full   Capacity
  Conduit                Both Ends  Upstream  Dnstream   Normal Flow   Limited
  ----------------------------------------------------------------------------
  C6                          0.01      0.39      0.01      0.28         0.01
  C10                         0.01      0.01     22.19      0.01         0.01
  C13                         0.01      0.01     21.29      0.01         0.01
  C18                         0.01      0.01     21.11      0.01         0.01
  C23                         0.01      0.01     22.34      0.01         0.01
  C4                          0.01      0.01     22.40      0.01         0.01
  C7                          0.01      0.01     21.31      0.01         0.01
  C5                          0.49      0.56      0.66      0.60         0.44
  C8                          0.01      0.54      0.01      0.50         0.01
  C15                         0.01      0.65      0.01      0.68         0.01
  C21                         0.01      0.03      0.01      0.02         0.01
  

  Analysis begun on:  Tue Sep 21 06:05:23 2021
  Analysis ended on:  Tue Sep 21 06:05:24 2021
  Total elapsed time: 00:00:01