
  EPA STORM WATER MANAGEMENT MODEL - VERSION 5.1 (Build 5.3.0.dev0)
  --------------------------------------------------------------

  
  *********************************************************
  NOTE: The summary statistics displayed in this report are
  based on results found at every computational time step,  
  not just on results from each reporting time step.
  *********************************************************
  
  ****************
  Analysis Options
  ****************
  Flow Units ............... CMS
  Process Models:
    Rainfall/Runoff ........ YES
    RDII ................... NO
    Snowmelt ............... NO
    Groundwater ............ NO
    Flow Routing ........... YES
    Ponding Allowed ........ YES
    Water Quality .......... NO
  Infiltration Method ...... HORTON
  Flow Routing Method ...... DYNWAVE
  Surcharge Method ......... EXTRAN
  Starting Date ............ 08/28/2015 08:00:00
  Ending Date .............. 08/28/2015 15:50:00
  Antecedent Dry Days ...... 0.0
  Report Time Step ......... 00:01:00
  Wet Time Step ............ 00:01:00
  Dry Time Step ............ 00:01:00
  Routing Time Step ........ 5.00 sec
  Variable Time Step ....... YES
  Maximum Trials ........... 8
  Number of Threads ........ 1
  Head Tolerance ........... 0.001500 m
  
  
  **************************        Volume         Depth
  Runoff Quantity Continuity     hectare-m            mm
  **************************     ---------       -------
  Total Precipitation ......         3.188        17.691
  Evaporation Loss .........         0.000         0.000
  Infiltration Loss ........         0.000         0.000
  Surface Runoff ...........         3.164        17.560
  Final Storage ............         0.024         0.133
  Continuity Error (%) .....        -0.011
  
  
  **************************        Volume        Volume
  Flow Routing Continuity        hectare-m      10^6 ltr
  **************************     ---------     ---------
  Dry Weather Inflow .......         0.396         3.955
  Wet Weather Inflow .......         3.164        31.643
  Groundwater Inflow .......         0.000         0.000
  RDII Inflow ..............         0.000         0.000
  External Inflow ..........         0.000         0.000
  External Outflow .........         0.598         5.979
  Flooding Loss ............         1.891        18.915
  Evaporation Loss .........         0.000         0.000
  Exfiltration Loss ........         0.000         0.000
  Initial Stored Volume ....         0.000         0.000
  Final Stored Volume ......         0.817         8.175
  Continuity Error (%) .....         7.104
  
  
  *************************
  Highest Continuity Errors
  *************************
  Node T2 (20.83%)
  Node T3 (16.80%)
  Node T4 (15.77%)
  Node T5 (11.95%)
  Node T6 (9.80%)
  
  
  ***************************
  Time-Step Critical Elements
  ***************************
  None
  
  
  ********************************
  Highest Flow Instability Indexes
  ********************************
  All links are stable.
  
  
  *************************
  Routing Time Step Summary
  *************************
  Minimum Time Step           :     4.50 sec
  Average Time Step           :     5.00 sec
  Maximum Time Step           :     5.00 sec
  Percent in Steady State     :     0.00
  Average Iterations per Step :     2.19
  Percent Not Converging      :     0.57
  
  
  ***************************
  Subcatchment Runoff Summary
  ***************************
  
  ------------------------------------------------------------------------------------------------------------------------------
                            Total      Total      Total      Total     Imperv       Perv      Total       Total     Peak  Runoff
                           Precip      Runon       Evap      Infil     Runoff     Runoff     Runoff      Runoff   Runoff   Coeff
  Subcatchment                 mm         mm         mm         mm         mm         mm         mm    10^6 ltr      CMS
  ------------------------------------------------------------------------------------------------------------------------------
  SC01                      17.69       0.00       0.00       0.00      17.61       0.00      17.61        5.81     1.36   0.995
  SC02                      17.69       0.00       0.00       0.00      17.60       0.00      17.60        4.00     0.92   0.995
  SC03                      17.69       0.00       0.00       0.00      17.62       0.00      17.62        3.17     0.80   0.996
  SC04                      17.69       0.00       0.00       0.00      17.49       0.00      17.49        1.21     0.22   0.989
  SC05                      17.69       0.00       0.00       0.00      17.60       0.00      17.60        2.75     0.63   0.995
  SC06                      17.69       0.00       0.00       0.00      17.44       0.00      17.44        5.68     0.97   0.986
  SC07                      17.69       0.00       0.00       0.00      17.49       0.00      17.49        0.83     0.15   0.989
  SC08                      17.69       0.00       0.00       0.00      17.57       0.00      17.57        4.92     1.05   0.993
  SC09                      17.69       0.00       0.00       0.00      17.55       0.00      17.55        1.21     0.24   0.992
  SC010                     17.69       0.00       0.00       0.00      17.58       0.00      17.58        2.07     0.45   0.994
  
  
  ******************
  Node Depth Summary
  ******************
  
  ---------------------------------------------------------------------------------
                                 Average  Maximum  Maximum  Time of Max    Reported
                                   Depth    Depth      HGL   Occurrence   Max Depth
  Node                 Type       Meters   Meters   Meters  days hr:min      Meters
  ---------------------------------------------------------------------------------
  J1                   JUNCTION     0.09     0.27    34.27     0  01:31        0.27
  J3                   JUNCTION     0.10     0.14    18.14     0  04:50        0.14
  CSO7                 JUNCTION     0.36     1.20    35.20     0  01:20        1.20
  J5                   JUNCTION     0.08     0.18    32.18     0  01:37        0.18
  CSO9                 JUNCTION     0.52     2.00    42.00     0  01:19        2.00
  J8                   JUNCTION     0.14     0.34    36.34     0  01:40        0.34
  CSO8                 JUNCTION     0.53     2.00    34.00     0  01:17        2.00
  J10                  JUNCTION     0.13     0.34    29.34     0  01:30        0.34
  J13                  JUNCTION     0.08     0.26    29.26     0  01:31        0.26
  J15                  JUNCTION     0.19     0.43    15.43     0  01:34        0.43
  J16                  JUNCTION     0.09     0.28    30.28     0  01:30        0.28
  CSO10                JUNCTION     0.29     1.00    31.00     0  01:17        1.00
  J12                  JUNCTION     0.75     1.02    27.02     0  02:37        1.02
  J4                   JUNCTION     0.26     1.43    34.43     0  01:22        0.75
  J6                   JUNCTION     0.06     0.07    25.07     0  02:40        0.07
  J2                   JUNCTION     0.07     0.08    25.08     0  02:34        0.08
  J19                  JUNCTION     0.14     0.17     8.17     0  01:38        0.17
  J9                   JUNCTION     0.09     0.11    29.11     0  04:10        0.11
  J14                  JUNCTION     0.10     0.15    20.15     0  06:41        0.15
  J17                  JUNCTION     0.05     0.08    20.08     0  04:10        0.08
  J7                   JUNCTION     0.11     0.23    39.23     0  02:12        0.23
  J11                  JUNCTION     0.13     0.30    31.30     0  02:12        0.30
  J18                  JUNCTION     0.07     0.16    29.16     0  01:57        0.16
  Out_to_WWTP          OUTFALL      0.14     0.17     6.17     0  03:59        0.17
  T5                   STORAGE      3.89     5.00    32.00     0  01:44        5.00
  T4                   STORAGE      3.87     5.00    32.00     0  02:15        5.00
  T6                   STORAGE      4.02     5.00    36.00     0  01:42        5.00
  T3                   STORAGE      3.86     5.00    27.00     0  02:37        5.00
  T2                   STORAGE      3.99     5.00    26.00     0  01:57        5.00
  T1                   STORAGE      3.62     5.00    15.00     0  01:37        5.00
  
  
  *******************
  Node Inflow Summary
  *******************
  
  -------------------------------------------------------------------------------------------------
                                  Maximum  Maximum                  Lateral       Total        Flow
                                  Lateral    Total  Time of Max      Inflow      Inflow     Balance
                                   Inflow   Inflow   Occurrence      Volume      Volume       Error
  Node                 Type           CMS      CMS  days hr:min    10^6 ltr    10^6 ltr     Percent
  -------------------------------------------------------------------------------------------------
  J1                   JUNCTION     0.649    0.649     0  01:31        3.31        3.31      -0.008
  J3                   JUNCTION     0.000    0.191     0  04:45           0        3.29       0.836
  CSO7                 JUNCTION     0.162    0.162     0  01:37        1.12        1.12       0.050
  J5                   JUNCTION     0.226    0.298     0  01:37        1.33        2.17       0.049
  CSO9                 JUNCTION     0.251    0.251     0  01:34        1.41        1.41       0.031
  J8                   JUNCTION     0.998    1.125     0  01:39        6.62        7.78       0.050
  CSO8                 JUNCTION     1.063    1.063     0  01:33        5.21        5.21       0.010
  J10                  JUNCTION     0.811    1.297     0  01:29        3.56        7.63      -0.047
  J13                  JUNCTION     0.938    0.938     0  01:31        4.47        4.47      -0.177
  J15                  JUNCTION     0.000    1.684     0  01:31           0        11.8       0.525
  J16                  JUNCTION     1.382    1.382     0  01:30        6.36        6.36      -0.032
  CSO10                JUNCTION     0.451    0.451     0  01:32         2.2         2.2       0.015
  J12                  JUNCTION     0.000    1.307     0  01:30           0        9.06       9.719
  J4                   JUNCTION     0.000    0.081     0  01:20           0       0.842       0.381
  J6                   JUNCTION     0.000    0.028     0  02:20           0       0.523       0.504
  J2                   JUNCTION     0.000    0.039     0  01:44           0       0.916       0.556
  J19                  JUNCTION     0.000    0.271     0  01:37           0        5.99       0.178
  J9                   JUNCTION     0.000    0.075     0  02:00           0        1.43       0.535
  J14                  JUNCTION     0.000    0.124     0  04:45           0        1.86       0.230
  J17                  JUNCTION     0.000    0.033     0  03:40           0       0.476       0.857
  J7                   JUNCTION     0.000    0.127     0  02:12           0        1.16       0.272
  J11                  JUNCTION     0.000    0.487     0  02:11           0        4.08       0.176
  J18                  JUNCTION     0.000    0.202     0  01:57           0        1.71       0.037
  Out_to_WWTP          OUTFALL      0.000    0.271     0  01:38           0        5.98       0.000
  T5                   STORAGE      0.000    0.649     0  01:31           0        3.31      13.570
  T4                   STORAGE      0.000    0.298     0  01:37           0        2.17      18.721
  T6                   STORAGE      0.000    1.124     0  01:40           0        7.77      10.869
  T3                   STORAGE      0.000    1.293     0  01:32           0        8.26      20.189
  T2                   STORAGE      0.000    0.937     0  01:31           0        4.48      26.316
  T1                   STORAGE      0.000    1.655     0  01:34           0        11.7       4.632
  
  
  **********************
  Node Surcharge Summary
  **********************
  
  Surcharging occurs when water rises above the top of the highest conduit.
  ---------------------------------------------------------------------
                                               Max. Height   Min. Depth
                                   Hours       Above Crown    Below Rim
  Node                 Type      Surcharged         Meters       Meters
  ---------------------------------------------------------------------
  CSO7                 JUNCTION        2.00          0.945        0.000
  CSO9                 JUNCTION        1.96          1.682        0.000
  CSO8                 JUNCTION        1.95          1.547        0.000
  CSO10                JUNCTION        1.86          0.560        0.000
  J4                   JUNCTION        1.98          1.134        0.566
  
  
  *********************
  Node Flooding Summary
  *********************
  
  Flooding refers to all water that overflows a node, whether it ponds or not.
  --------------------------------------------------------------------------
                                                             Total   Maximum
                                 Maximum   Time of Max       Flood    Ponded
                        Hours       Rate    Occurrence      Volume     Depth
  Node                 Flooded       CMS   days hr:min    10^6 ltr    Meters
  --------------------------------------------------------------------------
  CSO7                    1.86     0.089      0  01:37       0.279     0.000
  CSO9                    1.27     0.123      0  01:34       0.245     0.000
  CSO8                    1.32     0.577      0  01:33       1.136     0.000
  CSO10                   1.35     0.249      0  01:32       0.493     0.000
  T5                      2.35     0.485      0  01:44       1.594     0.000
  T4                      3.00     0.207      0  03:01       0.836     0.000
  T6                      3.90     1.057      0  01:43       5.037     0.000
  T3                      2.73     0.917      0  03:03       2.406     0.000
  T2                      3.62     0.569      0  03:01       2.088     0.000
  T1                      2.20     1.358      0  01:37       4.802     0.000
  
  
  **********************
  Storage Volume Summary
  **********************
  
  --------------------------------------------------------------------------------------------------
                         Average     Avg  Evap Exfil       Maximum     Max    Time of Max    Maximum
                          Volume    Pcnt  Pcnt  Pcnt        Volume    Pcnt     Occurrence    Outflow
  Storage Unit           1000 m3    Full  Loss  Loss       1000 m3    Full    days hr:min        CMS
  --------------------------------------------------------------------------------------------------
  T5                       0.389      78     0     0         0.500     100       0  01:44      0.039
  T4                       0.387      77     0     0         0.500     100       0  02:15      0.028
  T6                       0.483      80     0     0         0.600     100       0  01:42      0.075
  T3                       2.006      77     0     0         2.600     100       0  02:37      0.128
  T2                       0.799      80     0     0         1.000     100       0  01:57      0.033
  T1                       0.507      72     0     0         0.700     100       0  01:37      0.271
  
  
  ***********************
  Outfall Loading Summary
  ***********************
  
  -----------------------------------------------------------
                         Flow       Avg       Max       Total
                         Freq      Flow      Flow      Volume
  Outfall Node           Pcnt       CMS       CMS    10^6 ltr
  -----------------------------------------------------------
  Out_to_WWTP           99.01     0.214     0.271       5.979
  -----------------------------------------------------------
  System                99.01     0.214     0.271       5.979
  
  
  ********************
  Link Flow Summary
  ********************
  
  -----------------------------------------------------------------------------
                                 Maximum  Time of Max   Maximum    Max/    Max/
                                  |Flow|   Occurrence   |Veloc|    Full    Full
  Link                 Type          CMS  days hr:min     m/sec    Flow   Depth
  -----------------------------------------------------------------------------
  C1                   CONDUIT     0.039     0  02:32      1.14    0.01    0.11
  C6                   CONDUIT     0.073     0  01:37      1.29    1.16    0.81
  C2                   CONDUIT     0.028     0  02:40      1.01    0.03    0.18
  C9                   CONDUIT     0.127     0  02:12      1.29    0.43    0.58
  C16                  CONDUIT     0.487     0  02:59      1.79    0.05    0.16
  C3                   CONDUIT     0.124     0  04:42      1.85    0.05    0.14
  C19                  CONDUIT     0.033     0  04:10      0.67    0.01    0.25
  C11                  CONDUIT     0.190     0  04:50      1.76    0.01    0.13
  C20                  CONDUIT     1.381     0  01:31      3.72    0.04    0.18
  C22                  CONDUIT     0.202     0  01:57      1.63    0.09    0.37
  C12                  CONDUIT     0.075     0  04:10      0.46    0.01    0.28
  C17                  CONDUIT     1.291     0  01:30      3.43    0.06    0.33
  C10                  CONDUIT     1.124     0  01:40      1.66    0.12    0.61
  C13                  CONDUIT     1.293     0  01:32      2.26    0.08    0.75
  C18                  CONDUIT     0.937     0  01:31      1.72    0.03    0.56
  C23                  CONDUIT     1.655     0  01:34      1.69    0.18    0.64
  C4                   CONDUIT     0.649     0  01:31      1.98    0.16    0.63
  C7                   CONDUIT     0.298     0  01:37      1.43    0.07    0.59
  C14                  CONDUIT     0.271     0  01:38      2.08    0.02    0.09
  C5                   CONDUIT     0.081     0  01:20      1.59    1.39    1.00
  C8                   CONDUIT     0.127     0  02:12      1.79    1.60    0.86
  C15                  CONDUIT     0.487     0  02:11      3.48    1.55    0.83
  C21                  CONDUIT     0.202     0  01:57      1.85    1.16    0.69
  V4                   ORIFICE     0.028     0  02:20                      0.35
  V5                   ORIFICE     0.039     0  01:44                      1.00
  V1                   ORIFICE     0.271     0  01:37                      1.00
  V6                   ORIFICE     0.075     0  02:00                      0.43
  V3                   ORIFICE     0.124     0  04:45                      0.65
  V2                   ORIFICE     0.033     0  03:40                      0.24
  
  
  ***************************
  Flow Classification Summary
  ***************************
  
  -------------------------------------------------------------------------------------
                      Adjusted    ---------- Fraction of Time in Flow Class ---------- 
                       /Actual         Up    Down  Sub   Sup   Up    Down  Norm  Inlet 
  Conduit               Length    Dry  Dry   Dry   Crit  Crit  Crit  Crit  Ltd   Ctrl  
  -------------------------------------------------------------------------------------
  C1                      1.00   0.00  0.00  0.00  0.01  0.99  0.00  0.00  0.93  0.00
  C6                      1.00   0.00  0.00  0.00  0.27  0.73  0.00  0.00  0.00  0.00
  C2                      1.00   0.00  0.00  0.00  0.40  0.60  0.00  0.00  0.97  0.00
  C9                      1.00   0.00  0.00  0.00  1.00  0.00  0.00  0.00  1.00  0.00
  C16                     1.00   0.00  0.00  0.00  0.53  0.47  0.00  0.00  0.43  0.00
  C3                      1.00   0.00  0.00  0.00  0.04  0.95  0.00  0.00  0.59  0.00
  C19                     1.00   0.00  0.00  0.00  1.00  0.00  0.00  0.00  1.00  0.00
  C11                     1.00   0.00  0.00  0.00  0.37  0.62  0.00  0.00  1.00  0.00
  C20                     1.00   0.00  0.00  0.00  0.54  0.46  0.00  0.00  0.97  0.00
  C22                     1.00   0.00  0.00  0.00  0.76  0.24  0.00  0.00  1.00  0.00
  C12                     1.00   0.00  0.00  0.00  1.00  0.00  0.00  0.00  1.00  0.00
  C17                     1.00   0.00  0.00  0.00  0.71  0.29  0.00  0.00  0.93  0.00
  C10                     1.00   0.00  0.00  0.00  0.96  0.04  0.00  0.00  0.97  0.00
  C13                     1.00   0.00  0.00  0.00  0.84  0.16  0.00  0.00  0.17  0.00
  C18                     1.00   0.00  0.00  0.00  0.93  0.07  0.00  0.00  0.97  0.00
  C23                     1.00   0.00  0.00  0.00  0.85  0.15  0.00  0.00  0.94  0.00
  C4                      1.00   0.00  0.00  0.00  0.96  0.04  0.00  0.00  0.98  0.00
  C7                      1.00   0.00  0.00  0.00  0.95  0.05  0.00  0.00  0.97  0.00
  C14                     1.00   0.00  0.00  0.00  0.00  0.99  0.00  0.00  0.26  0.00
  C5                      1.00   0.00  0.00  0.00  0.94  0.06  0.00  0.00  0.70  0.00
  C8                      1.00   0.00  0.00  0.00  0.26  0.74  0.00  0.00  0.00  0.00
  C15                     1.00   0.00  0.00  0.00  0.00  1.00  0.00  0.00  0.00  0.00
  C21                     1.00   0.00  0.00  0.00  0.00  1.00  0.00  0.00  0.00  0.00
  
  
  *************************
  Conduit Surcharge Summary
  *************************
  
  ----------------------------------------------------------------------------
                                                           Hours        Hours 
                         --------- Hours Full --------   Above Full   Capacity
  Conduit                Both Ends  Upstream  Dnstream   Normal Flow   Limited
  ----------------------------------------------------------------------------
  C6                          0.01      1.98      0.01      1.88         0.01
  C10                         0.01      0.01      6.40      0.01         0.01
  C13                         0.01      0.01      6.16      0.01         0.01
  C18                         0.01      0.01      6.31      0.01         0.01
  C23                         0.01      0.01      6.43      0.01         0.01
  C4                          0.01      0.01      6.49      0.01         0.01
  C7                          0.01      0.01      6.36      0.01         0.01
  C5                          1.97      2.00      2.07      2.00         1.94
  C8                          0.01      1.97      0.01      1.98         0.01
  C15                         0.01      1.95      0.01      1.98         0.01
  C21                         0.01      1.86      0.01      1.85         0.01
  

  Analysis begun on:  Fri Sep  3 17:54:44 2021
  Analysis ended on:  Fri Sep  3 17:54:44 2021
  Total elapsed time: < 1 sec