
  EPA STORM WATER MANAGEMENT MODEL - VERSION 5.1 (Build 5.3.0.dev0)
  --------------------------------------------------------------

  
  *********************************************************
  NOTE: The summary statistics displayed in this report are
  based on results found at every computational time step,  
  not just on results from each reporting time step.
  *********************************************************
  
  ****************
  Analysis Options
  ****************
  Flow Units ............... CMS
  Process Models:
    Rainfall/Runoff ........ YES
    RDII ................... NO
    Snowmelt ............... NO
    Groundwater ............ NO
    Flow Routing ........... YES
    Ponding Allowed ........ YES
    Water Quality .......... NO
  Infiltration Method ...... HORTON
  Flow Routing Method ...... DYNWAVE
  Surcharge Method ......... EXTRAN
  Starting Date ............ 08/28/2015 08:00:00
  Ending Date .............. 08/28/2015 15:50:00
  Antecedent Dry Days ...... 0.0
  Report Time Step ......... 00:01:00
  Wet Time Step ............ 00:01:00
  Dry Time Step ............ 00:01:00
  Routing Time Step ........ 5.00 sec
  Variable Time Step ....... YES
  Maximum Trials ........... 8
  Number of Threads ........ 1
  Head Tolerance ........... 0.001500 m
  
  
  **************************        Volume         Depth
  Runoff Quantity Continuity     hectare-m            mm
  **************************     ---------       -------
  Total Precipitation ......         1.192         6.615
  Evaporation Loss .........         0.000         0.000
  Infiltration Loss ........         0.000         0.000
  Surface Runoff ...........         1.169         6.490
  Final Storage ............         0.023         0.126
  Continuity Error (%) .....        -0.007
  
  
  **************************        Volume        Volume
  Flow Routing Continuity        hectare-m      10^6 ltr
  **************************     ---------     ---------
  Dry Weather Inflow .......         0.396         3.956
  Wet Weather Inflow .......         1.169        11.695
  Groundwater Inflow .......         0.000         0.000
  RDII Inflow ..............         0.000         0.000
  External Inflow ..........         0.000         0.000
  External Outflow .........         0.530         5.297
  Flooding Loss ............         0.150         1.501
  Evaporation Loss .........         0.000         0.000
  Exfiltration Loss ........         0.000         0.000
  Initial Stored Volume ....         0.000         0.000
  Final Stored Volume ......         0.676         6.763
  Continuity Error (%) .....        13.349
  
  
  *************************
  Highest Continuity Errors
  *************************
  Node T2 (39.03%)
  Node T4 (26.15%)
  Node T3 (24.79%)
  Node T5 (24.06%)
  Node T6 (21.29%)
  
  
  ***************************
  Time-Step Critical Elements
  ***************************
  None
  
  
  ********************************
  Highest Flow Instability Indexes
  ********************************
  All links are stable.
  
  
  *************************
  Routing Time Step Summary
  *************************
  Minimum Time Step           :     1.35 sec
  Average Time Step           :     5.00 sec
  Maximum Time Step           :     5.00 sec
  Percent in Steady State     :     0.00
  Average Iterations per Step :     2.06
  Percent Not Converging      :     0.23
  
  
  ***************************
  Subcatchment Runoff Summary
  ***************************
  
  ------------------------------------------------------------------------------------------------------------------------------
                            Total      Total      Total      Total     Imperv       Perv      Total       Total     Peak  Runoff
                           Precip      Runon       Evap      Infil     Runoff     Runoff     Runoff      Runoff   Runoff   Coeff
  Subcatchment                 mm         mm         mm         mm         mm         mm         mm    10^6 ltr      CMS
  ------------------------------------------------------------------------------------------------------------------------------
  SC01                       6.61       0.00       0.00       0.00       6.53       0.00       6.53        2.16     0.50   0.987
  SC02                       6.61       0.00       0.00       0.00       6.53       0.00       6.53        1.48     0.34   0.987
  SC03                       6.61       0.00       0.00       0.00       6.55       0.00       6.55        1.18     0.29   0.990
  SC04                       6.61       0.00       0.00       0.00       6.43       0.00       6.43        0.44     0.08   0.972
  SC05                       6.61       0.00       0.00       0.00       6.52       0.00       6.52        1.02     0.23   0.986
  SC06                       6.61       0.00       0.00       0.00       6.38       0.00       6.38        2.08     0.36   0.965
  SC07                       6.61       0.00       0.00       0.00       6.43       0.00       6.43        0.31     0.06   0.972
  SC08                       6.61       0.00       0.00       0.00       6.50       0.00       6.50        1.82     0.39   0.983
  SC09                       6.61       0.00       0.00       0.00       6.48       0.00       6.48        0.45     0.09   0.979
  SC010                      6.61       0.00       0.00       0.00       6.51       0.00       6.51        0.76     0.17   0.984
  
  
  ******************
  Node Depth Summary
  ******************
  
  ---------------------------------------------------------------------------------
                                 Average  Maximum  Maximum  Time of Max    Reported
                                   Depth    Depth      HGL   Occurrence   Max Depth
  Node                 Type       Meters   Meters   Meters  days hr:min      Meters
  ---------------------------------------------------------------------------------
  J1                   JUNCTION     0.07     0.17    34.17     0  02:05        0.17
  J3                   JUNCTION     0.09     0.13    18.13     0  05:10        0.13
  CSO7                 JUNCTION     0.13     1.20    35.20     0  02:10        0.97
  J5                   JUNCTION     0.06     0.13    32.13     0  02:13        0.13
  CSO9                 JUNCTION     0.14     0.91    40.91     0  02:07        0.91
  J8                   JUNCTION     0.11     0.23    36.23     0  02:13        0.23
  CSO8                 JUNCTION     0.16     1.18    33.18     0  02:06        1.18
  J10                  JUNCTION     0.09     0.25    29.25     0  02:07        0.25
  J13                  JUNCTION     0.06     0.16    29.16     0  02:05        0.16
  J15                  JUNCTION     0.15     0.30    15.30     0  02:11        0.29
  J16                  JUNCTION     0.07     0.18    30.18     0  02:04        0.18
  CSO10                JUNCTION     0.12     0.39    30.39     0  02:06        0.39
  J12                  JUNCTION     0.17     0.28    26.28     0  07:29        0.28
  J4                   JUNCTION     0.14     1.12    34.12     0  02:10        0.64
  J6                   JUNCTION     0.05     0.07    25.07     0  05:10        0.07
  J2                   JUNCTION     0.07     0.08    25.08     0  03:47        0.08
  J19                  JUNCTION     0.14     0.17     8.17     0  02:35        0.17
  J9                   JUNCTION     0.08     0.11    29.11     0  04:40        0.11
  J14                  JUNCTION     0.09     0.15    20.15     0  07:41        0.15
  J17                  JUNCTION     0.05     0.07    20.07     0  06:50        0.07
  J7                   JUNCTION     0.08     0.20    39.20     0  02:11        0.20
  J11                  JUNCTION     0.10     0.27    31.27     0  02:08        0.27
  J18                  JUNCTION     0.05     0.15    29.15     0  02:08        0.15
  Out_to_WWTP          OUTFALL      0.14     0.17     6.17     0  02:34        0.17
  T5                   STORAGE      3.23     4.76    31.76     0  03:45        4.76
  T4                   STORAGE      2.93     4.37    31.37     0  04:59        4.37
  T6                   STORAGE      3.63     5.00    36.00     0  02:37        5.00
  T3                   STORAGE      2.83     4.28    26.28     0  07:32        4.28
  T2                   STORAGE      2.79     4.02    25.02     0  05:54        4.02
  T1                   STORAGE      2.97     5.00    15.00     0  02:33        5.00
  
  
  *******************
  Node Inflow Summary
  *******************
  
  -------------------------------------------------------------------------------------------------
                                  Maximum  Maximum                  Lateral       Total        Flow
                                  Lateral    Total  Time of Max      Inflow      Inflow     Balance
                                   Inflow   Inflow   Occurrence      Volume      Volume       Error
  Node                 Type           CMS      CMS  days hr:min    10^6 ltr    10^6 ltr     Percent
  -------------------------------------------------------------------------------------------------
  J1                   JUNCTION     0.254    0.254     0  02:05        1.58        1.58       0.028
  J3                   JUNCTION     0.000    0.176     0  05:04           0        2.68       1.370
  CSO7                 JUNCTION     0.068    0.068     0  02:11       0.596       0.596       0.071
  J5                   JUNCTION     0.087    0.155     0  02:10       0.571        1.16       0.131
  CSO9                 JUNCTION     0.098    0.098     0  02:08       0.643       0.643       0.046
  J8                   JUNCTION     0.395    0.492     0  02:13        3.02        3.66       0.141
  CSO8                 JUNCTION     0.401    0.401     0  02:06        2.11        2.11       0.011
  J10                  JUNCTION     0.308    0.696     0  02:05        1.56        3.67       0.137
  J13                  JUNCTION     0.358    0.358     0  02:05        1.95        1.95      -0.220
  J15                  JUNCTION     0.000    0.776     0  02:07           0        6.65       1.147
  J16                  JUNCTION     0.524    0.524     0  02:04        2.71        2.71       0.004
  CSO10                JUNCTION     0.171    0.171     0  02:06       0.903       0.903       0.046
  J12                  JUNCTION     0.000    0.727     0  02:06           0        4.98       2.695
  J4                   JUNCTION     0.000    0.068     0  02:10           0       0.595       0.574
  J6                   JUNCTION     0.000    0.026     0  05:00           0       0.445       0.871
  J2                   JUNCTION     0.000    0.038     0  03:45           0        0.82       0.607
  J19                  JUNCTION     0.000    0.271     0  02:33           0        5.31       0.183
  J9                   JUNCTION     0.000    0.075     0  02:50           0        1.33       1.312
  J14                  JUNCTION     0.000    0.114     0  07:42           0        1.43       0.489
  J17                  JUNCTION     0.000    0.030     0  06:00           0       0.401       0.928
  J7                   JUNCTION     0.000    0.098     0  02:08           0       0.643       0.491
  J11                  JUNCTION     0.000    0.401     0  02:06           0        2.11       0.289
  J18                  JUNCTION     0.000    0.171     0  02:07           0       0.903       0.108
  Out_to_WWTP          OUTFALL      0.000    0.271     0  02:35           0         5.3       0.000
  T5                   STORAGE      0.000    0.254     0  02:05           0        1.58      31.684
  T4                   STORAGE      0.000    0.154     0  02:13           0        1.16      35.406
  T6                   STORAGE      0.000    0.491     0  02:14           0        3.65      27.041
  T3                   STORAGE      0.000    0.717     0  02:09           0        4.85      32.964
  T2                   STORAGE      0.000    0.358     0  02:05           0        1.96      64.028
  T1                   STORAGE      0.000    0.766     0  02:11           0        6.57       6.856
  
  
  **********************
  Node Surcharge Summary
  **********************
  
  Surcharging occurs when water rises above the top of the highest conduit.
  ---------------------------------------------------------------------
                                               Max. Height   Min. Depth
                                   Hours       Above Crown    Below Rim
  Node                 Type      Surcharged         Meters       Meters
  ---------------------------------------------------------------------
  CSO7                 JUNCTION        0.52          0.945        0.000
  CSO9                 JUNCTION        0.54          0.593        1.089
  CSO8                 JUNCTION        0.48          0.726        0.821
  J4                   JUNCTION        0.48          0.824        0.876
  
  
  *********************
  Node Flooding Summary
  *********************
  
  Flooding refers to all water that overflows a node, whether it ponds or not.
  --------------------------------------------------------------------------
                                                             Total   Maximum
                                 Maximum   Time of Max       Flood    Ponded
                        Hours       Rate    Occurrence      Volume     Depth
  Node                 Flooded       CMS   days hr:min    10^6 ltr    Meters
  --------------------------------------------------------------------------
  CSO7                    0.01     0.002      0  02:10       0.000     0.000
  T6                      2.37     0.387      0  02:37       0.995     0.000
  T1                      0.83     0.343      0  02:33       0.506     0.000
  
  
  **********************
  Storage Volume Summary
  **********************
  
  --------------------------------------------------------------------------------------------------
                         Average     Avg  Evap Exfil       Maximum     Max    Time of Max    Maximum
                          Volume    Pcnt  Pcnt  Pcnt        Volume    Pcnt     Occurrence    Outflow
  Storage Unit           1000 m3    Full  Loss  Loss       1000 m3    Full    days hr:min        CMS
  --------------------------------------------------------------------------------------------------
  T5                       0.323      65     0     0         0.476      95       0  03:45      0.038
  T4                       0.293      59     0     0         0.437      87       0  04:59      0.026
  T6                       0.436      73     0     0         0.600     100       0  02:37      0.075
  T3                       1.472      57     0     0         2.228      86       0  07:32      0.114
  T2                       0.558      56     0     0         0.805      80       0  05:54      0.030
  T1                       0.416      59     0     0         0.700     100       0  02:33      0.271
  
  
  ***********************
  Outfall Loading Summary
  ***********************
  
  -----------------------------------------------------------
                         Flow       Avg       Max       Total
                         Freq      Flow      Flow      Volume
  Outfall Node           Pcnt       CMS       CMS    10^6 ltr
  -----------------------------------------------------------
  Out_to_WWTP           99.01     0.190     0.271       5.297
  -----------------------------------------------------------
  System                99.01     0.190     0.271       5.297
  
  
  ********************
  Link Flow Summary
  ********************
  
  -----------------------------------------------------------------------------
                                 Maximum  Time of Max   Maximum    Max/    Max/
                                  |Flow|   Occurrence   |Veloc|    Full    Full
  Link                 Type          CMS  days hr:min     m/sec    Flow   Depth
  -----------------------------------------------------------------------------
  C1                   CONDUIT     0.038     0  03:47      1.09    0.01    0.10
  C6                   CONDUIT     0.068     0  02:10      1.27    1.08    0.72
  C2                   CONDUIT     0.026     0  05:10      0.98    0.03    0.17
  C9                   CONDUIT     0.097     0  02:11      1.22    0.33    0.43
  C16                  CONDUIT     0.399     0  02:08      1.65    0.04    0.13
  C3                   CONDUIT     0.114     0  07:42      1.77    0.04    0.14
  C19                  CONDUIT     0.030     0  06:50      0.68    0.01    0.18
  C11                  CONDUIT     0.175     0  05:10      1.77    0.01    0.10
  C20                  CONDUIT     0.523     0  02:04      2.63    0.02    0.12
  C22                  CONDUIT     0.170     0  02:08      1.51    0.08    0.28
  C12                  CONDUIT     0.075     0  04:40      1.09    0.01    0.09
  C17                  CONDUIT     0.693     0  02:07      2.82    0.03    0.13
  C10                  CONDUIT     0.491     0  02:14      1.66    0.05    0.58
  C13                  CONDUIT     0.717     0  02:09      1.45    0.04    0.57
  C18                  CONDUIT     0.358     0  02:05      1.72    0.01    0.54
  C23                  CONDUIT     0.766     0  02:11      1.24    0.08    0.60
  C4                   CONDUIT     0.254     0  02:05      1.98    0.06    0.58
  C7                   CONDUIT     0.154     0  02:13      1.43    0.04    0.57
  C14                  CONDUIT     0.271     0  02:35      2.08    0.02    0.09
  C5                   CONDUIT     0.068     0  02:10      1.32    1.16    1.00
  C8                   CONDUIT     0.098     0  02:08      1.42    1.24    0.81
  C15                  CONDUIT     0.401     0  02:06      2.92    1.28    0.80
  C21                  CONDUIT     0.171     0  02:07      1.76    0.98    0.61
  V4                   ORIFICE     0.026     0  05:00                      0.35
  V5                   ORIFICE     0.038     0  03:45                      1.00
  V1                   ORIFICE     0.271     0  02:33                      1.00
  V6                   ORIFICE     0.075     0  02:50                      0.43
  V3                   ORIFICE     0.114     0  07:42                      0.65
  V2                   ORIFICE     0.030     0  06:00                      0.24
  
  
  ***************************
  Flow Classification Summary
  ***************************
  
  -------------------------------------------------------------------------------------
                      Adjusted    ---------- Fraction of Time in Flow Class ---------- 
                       /Actual         Up    Down  Sub   Sup   Up    Down  Norm  Inlet 
  Conduit               Length    Dry  Dry   Dry   Crit  Crit  Crit  Crit  Ltd   Ctrl  
  -------------------------------------------------------------------------------------
  C1                      1.00   0.00  0.00  0.00  0.02  0.98  0.00  0.00  0.94  0.00
  C6                      1.00   0.00  0.00  0.00  0.09  0.90  0.00  0.00  0.00  0.00
  C2                      1.00   0.00  0.00  0.00  0.38  0.62  0.00  0.00  0.95  0.00
  C9                      1.00   0.00  0.00  0.00  1.00  0.00  0.00  0.00  1.00  0.00
  C16                     1.00   0.00  0.00  0.00  0.59  0.41  0.00  0.00  0.48  0.00
  C3                      1.00   0.00  0.00  0.00  0.05  0.95  0.00  0.00  0.74  0.00
  C19                     1.00   0.00  0.00  0.00  1.00  0.00  0.00  0.00  1.00  0.00
  C11                     1.00   0.00  0.00  0.00  0.33  0.67  0.00  0.00  1.00  0.00
  C20                     1.00   0.00  0.00  0.00  0.54  0.46  0.00  0.00  0.98  0.00
  C22                     1.00   0.00  0.00  0.00  0.75  0.25  0.00  0.00  1.00  0.00
  C12                     1.00   0.00  0.00  0.00  0.80  0.20  0.00  0.00  0.99  0.00
  C17                     1.00   0.00  0.00  0.00  0.36  0.64  0.00  0.00  0.97  0.00
  C10                     1.00   0.00  0.00  0.00  0.96  0.04  0.00  0.00  0.97  0.00
  C13                     1.00   0.00  0.00  0.00  0.85  0.15  0.00  0.00  0.59  0.00
  C18                     1.00   0.00  0.00  0.00  0.94  0.06  0.00  0.00  0.97  0.00
  C23                     1.00   0.00  0.00  0.00  0.86  0.14  0.00  0.00  0.94  0.00
  C4                      1.00   0.00  0.00  0.00  0.96  0.04  0.00  0.00  0.98  0.00
  C7                      1.00   0.00  0.00  0.00  0.94  0.06  0.00  0.00  0.97  0.00
  C14                     1.00   0.00  0.00  0.00  0.00  0.99  0.00  0.00  0.36  0.00
  C5                      1.00   0.00  0.00  0.00  0.89  0.11  0.00  0.00  0.91  0.00
  C8                      1.00   0.00  0.00  0.00  0.11  0.89  0.00  0.00  0.00  0.00
  C15                     1.00   0.00  0.00  0.00  0.00  1.00  0.00  0.00  0.00  0.00
  C21                     1.00   0.00  0.00  0.00  0.00  1.00  0.00  0.00  0.00  0.00
  
  
  *************************
  Conduit Surcharge Summary
  *************************
  
  ----------------------------------------------------------------------------
                                                           Hours        Hours 
                         --------- Hours Full --------   Above Full   Capacity
  Conduit                Both Ends  Upstream  Dnstream   Normal Flow   Limited
  ----------------------------------------------------------------------------
  C6                          0.01      0.48      0.01      0.22         0.01
  C10                         0.01      0.01      5.86      0.01         0.01
  C13                         0.01      0.01      5.43      0.01         0.01
  C18                         0.01      0.01      5.53      0.01         0.01
  C23                         0.01      0.01      5.89      0.01         0.01
  C4                          0.01      0.01      6.01      0.01         0.01
  C7                          0.01      0.01      5.79      0.01         0.01
  C5                          0.51      0.52      0.66      0.54         0.44
  C8                          0.01      0.54      0.01      0.52         0.01
  C15                         0.01      0.48      0.01      0.53         0.01
  

  Analysis begun on:  Fri Sep  3 18:00:00 2021
  Analysis ended on:  Fri Sep  3 18:00:00 2021
  Total elapsed time: < 1 sec