
  EPA STORM WATER MANAGEMENT MODEL - VERSION 5.1 (Build 5.3.0.dev0)
  --------------------------------------------------------------

  WARNING 09: time series interval greater than recording interval for Rain Gage RG1
  WARNING 09: time series interval greater than recording interval for Rain Gage RG2
  WARNING 09: time series interval greater than recording interval for Rain Gage RG3
  WARNING 09: time series interval greater than recording interval for Rain Gage RG4
  
  *********************************************************
  NOTE: The summary statistics displayed in this report are
  based on results found at every computational time step,  
  not just on results from each reporting time step.
  *********************************************************
  
  ****************
  Analysis Options
  ****************
  Flow Units ............... CMS
  Process Models:
    Rainfall/Runoff ........ YES
    RDII ................... NO
    Snowmelt ............... NO
    Groundwater ............ NO
    Flow Routing ........... YES
    Ponding Allowed ........ YES
    Water Quality .......... NO
  Infiltration Method ...... HORTON
  Flow Routing Method ...... DYNWAVE
  Surcharge Method ......... EXTRAN
  Starting Date ............ 08/28/2015 00:00:00
  Ending Date .............. 08/28/2015 23:40:00
  Antecedent Dry Days ...... 0.0
  Report Time Step ......... 00:01:00
  Wet Time Step ............ 00:01:00
  Dry Time Step ............ 00:01:00
  Routing Time Step ........ 5.00 sec
  Variable Time Step ....... YES
  Maximum Trials ........... 8
  Number of Threads ........ 1
  Head Tolerance ........... 0.001500 m
  
  
  **************************        Volume         Depth
  Runoff Quantity Continuity     hectare-m            mm
  **************************     ---------       -------
  Total Precipitation ......         2.756        15.296
  Evaporation Loss .........         0.000         0.000
  Infiltration Loss ........         0.000         0.000
  Surface Runoff ...........         2.710        15.036
  Final Storage ............         0.048         0.269
  Continuity Error (%) .....        -0.057
  
  
  **************************        Volume        Volume
  Flow Routing Continuity        hectare-m      10^6 ltr
  **************************     ---------     ---------
  Dry Weather Inflow .......         0.758         7.576
  Wet Weather Inflow .......         2.709        27.094
  Groundwater Inflow .......         0.000         0.000
  RDII Inflow ..............         0.000         0.000
  External Inflow ..........         0.000         0.000
  External Outflow .........         1.089        10.886
  Flooding Loss ............         1.250        12.504
  Evaporation Loss .........         0.000         0.000
  Exfiltration Loss ........         0.000         0.000
  Initial Stored Volume ....         0.000         0.000
  Final Stored Volume ......         0.840         8.397
  Continuity Error (%) .....         8.313
  
  
  *************************
  Highest Continuity Errors
  *************************
  Node T2 (22.25%)
  Node T4 (14.45%)
  Node T3 (14.21%)
  Node T5 (12.45%)
  Node T6 (9.77%)
  
  
  ***************************
  Time-Step Critical Elements
  ***************************
  None
  
  
  ********************************
  Highest Flow Instability Indexes
  ********************************
  Link C15 (1)
  Link C20 (1)
  
  
  *************************
  Routing Time Step Summary
  *************************
  Minimum Time Step           :     4.50 sec
  Average Time Step           :     5.00 sec
  Maximum Time Step           :     5.00 sec
  Percent in Steady State     :     0.00
  Average Iterations per Step :     2.00
  Percent Not Converging      :     0.00
  
  
  ***************************
  Subcatchment Runoff Summary
  ***************************
  
  ------------------------------------------------------------------------------------------------------------------------------
                            Total      Total      Total      Total     Imperv       Perv      Total       Total     Peak  Runoff
                           Precip      Runon       Evap      Infil     Runoff     Runoff     Runoff      Runoff   Runoff   Coeff
  Subcatchment                 mm         mm         mm         mm         mm         mm         mm    10^6 ltr      CMS
  ------------------------------------------------------------------------------------------------------------------------------
  SC01                      16.11       0.00       0.00       0.00      15.95       0.00      15.95        5.26     0.36   0.990
  SC02                      14.54       0.00       0.00       0.00      14.36       0.00      14.36        3.27     0.20   0.987
  SC03                      14.08       0.00       0.00       0.00      13.98       0.00      13.98        2.52     0.16   0.993
  SC04                      14.54       0.00       0.00       0.00      14.09       0.00      14.09        0.97     0.05   0.969
  SC05                      16.11       0.00       0.00       0.00      15.92       0.00      15.92        2.48     0.16   0.989
  SC06                      16.13       0.00       0.00       0.00      15.64       0.00      15.64        5.09     0.27   0.969
  SC07                      14.54       0.00       0.00       0.00      14.09       0.00      14.09        0.67     0.04   0.969
  SC08                      14.08       0.00       0.00       0.00      13.85       0.00      13.85        3.88     0.22   0.984
  SC09                      16.13       0.00       0.00       0.00      15.85       0.00      15.85        1.09     0.06   0.983
  SC010                     16.11       0.00       0.00       0.00      15.86       0.00      15.86        1.86     0.11   0.985
  
  
  ******************
  Node Depth Summary
  ******************
  
  ---------------------------------------------------------------------------------
                                 Average  Maximum  Maximum  Time of Max    Reported
                                   Depth    Depth      HGL   Occurrence   Max Depth
  Node                 Type       Meters   Meters   Meters  days hr:min      Meters
  ---------------------------------------------------------------------------------
  J1                   JUNCTION     0.06     0.14    34.14     0  19:42        0.14
  J3                   JUNCTION     0.08     0.14    18.14     0  22:13        0.14
  CSO7                 JUNCTION     0.08     0.15    34.15     0  19:46        0.15
  J5                   JUNCTION     0.05     0.10    32.10     0  21:53        0.10
  CSO9                 JUNCTION     0.09     0.23    40.23     0  19:36        0.23
  J8                   JUNCTION     0.09     0.19    36.19     0  19:37        0.19
  CSO8                 JUNCTION     0.10     0.29    32.29     0  18:06        0.28
  J10                  JUNCTION     0.08     0.18    29.18     0  18:08        0.18
  J13                  JUNCTION     0.05     0.12    29.12     0  21:52        0.12
  J15                  JUNCTION     0.13     0.26    15.26     0  21:48        0.26
  J16                  JUNCTION     0.06     0.15    30.15     0  19:42        0.15
  CSO10                JUNCTION     0.10     0.28    30.28     0  19:41        0.28
  J12                  JUNCTION     0.29     1.01    27.01     0  19:22        1.01
  J4                   JUNCTION     0.10     0.18    33.18     0  19:48        0.18
  J6                   JUNCTION     0.04     0.07    25.07     0  20:00        0.07
  J2                   JUNCTION     0.05     0.08    25.08     0  18:32        0.08
  J19                  JUNCTION     0.11     0.17     8.17     0  17:14        0.17
  J9                   JUNCTION     0.07     0.11    29.11     0  19:20        0.11
  J14                  JUNCTION     0.08     0.15    20.15     0  20:21        0.15
  J17                  JUNCTION     0.04     0.08    20.08     0  20:20        0.08
  J7                   JUNCTION     0.07     0.16    39.16     0  19:38        0.16
  J11                  JUNCTION     0.08     0.19    31.19     0  18:08        0.19
  J18                  JUNCTION     0.05     0.12    29.12     0  19:43        0.12
  Out_to_WWTP          OUTFALL      0.11     0.17     6.17     0  22:57        0.17
  T5                   STORAGE      1.90     5.00    32.00     0  17:47        5.00
  T4                   STORAGE      1.91     5.00    32.00     0  18:14        5.00
  T6                   STORAGE      2.28     5.00    36.00     0  15:49        5.00
  T3                   STORAGE      1.80     5.00    27.00     0  19:02        5.00
  T2                   STORAGE      1.79     5.00    26.00     0  18:35        5.00
  T1                   STORAGE      1.88     5.00    15.00     0  17:13        5.00
  
  
  *******************
  Node Inflow Summary
  *******************
  
  -------------------------------------------------------------------------------------------------
                                  Maximum  Maximum                  Lateral       Total        Flow
                                  Lateral    Total  Time of Max      Inflow      Inflow     Balance
                                   Inflow   Inflow   Occurrence      Volume      Volume       Error
  Node                 Type           CMS      CMS  days hr:min    10^6 ltr    10^6 ltr     Percent
  -------------------------------------------------------------------------------------------------
  J1                   JUNCTION     0.177    0.177     0  19:41        3.58        3.58       0.009
  J3                   JUNCTION     0.000    0.189     0  21:41           0        6.18       0.583
  CSO7                 JUNCTION     0.041    0.041     0  19:46        1.23        1.23       0.024
  J5                   JUNCTION     0.054    0.088     0  21:51        1.22        2.45       0.077
  CSO9                 JUNCTION     0.068    0.068     0  19:36        1.48        1.48       0.020
  J8                   JUNCTION     0.298    0.358     0  19:36        6.92        8.39       0.075
  CSO8                 JUNCTION     0.219    0.219     0  18:06        4.33        4.33       0.008
  J10                  JUNCTION     0.173    0.351     0  18:06        3.27        7.59      -0.027
  J13                  JUNCTION     0.210    0.210     0  21:51        4.18        4.18      -0.019
  J15                  JUNCTION     0.000    0.634     0  21:47           0        15.6       0.535
  J16                  JUNCTION     0.367    0.367     0  19:41        6.34        6.34      -0.002
  CSO10                JUNCTION     0.118    0.118     0  19:41        2.13        2.13       0.021
  J12                  JUNCTION     0.000    0.389     0  20:53           0        10.3       7.966
  J4                   JUNCTION     0.000    0.040     0  19:46           0        1.23       0.182
  J6                   JUNCTION     0.000    0.028     0  18:50           0       0.926       0.272
  J2                   JUNCTION     0.000    0.039     0  17:47           0        1.68       0.327
  J19                  JUNCTION     0.000    0.271     0  17:13           0        10.9       0.111
  J9                   JUNCTION     0.000    0.075     0  15:50           0        2.75       0.245
  J14                  JUNCTION     0.000    0.124     0  20:20           0        3.59       0.201
  J17                  JUNCTION     0.000    0.033     0  19:40           0           1       0.627
  J7                   JUNCTION     0.000    0.066     0  19:37           0        1.47       0.144
  J11                  JUNCTION     0.000    0.217     0  18:06           0        4.32       0.125
  J18                  JUNCTION     0.000    0.113     0  19:42           0        2.13       0.069
  Out_to_WWTP          OUTFALL      0.000    0.271     0  17:14           0        10.9       0.000
  T5                   STORAGE      0.000    0.165     0  19:42           0        3.58      14.220
  T4                   STORAGE      0.000    0.086     0  21:53           0        2.45      16.893
  T6                   STORAGE      0.000    0.345     0  19:37           0        8.39      10.831
  T3                   STORAGE      0.000    0.426     0  19:25           0        9.57      16.562
  T2                   STORAGE      0.000    0.192     0  21:52           0        4.18      28.623
  T1                   STORAGE      0.000    0.606     0  21:49           0        15.5       5.046
  
  
  **********************
  Node Surcharge Summary
  **********************
  
  No nodes were surcharged.
  
  
  *********************
  Node Flooding Summary
  *********************
  
  Flooding refers to all water that overflows a node, whether it ponds or not.
  --------------------------------------------------------------------------
                                                             Total   Maximum
                                 Maximum   Time of Max       Flood    Ponded
                        Hours       Rate    Occurrence      Volume     Depth
  Node                 Flooded       CMS   days hr:min    10^6 ltr    Meters
  --------------------------------------------------------------------------
  T5                      4.56     0.126      0  19:42       1.010     0.000
  T4                      4.65     0.071      0  21:53       0.685     0.000
  T6                      6.93     0.305      0  18:07       4.234     0.000
  T3                      3.23     0.353      0  19:40       2.054     0.000
  T2                      3.99     0.173      0  21:52       1.262     0.000
  T1                      5.54     0.335      0  21:49       3.258     0.000
  
  
  **********************
  Storage Volume Summary
  **********************
  
  --------------------------------------------------------------------------------------------------
                         Average     Avg  Evap Exfil       Maximum     Max    Time of Max    Maximum
                          Volume    Pcnt  Pcnt  Pcnt        Volume    Pcnt     Occurrence    Outflow
  Storage Unit           1000 m3    Full  Loss  Loss       1000 m3    Full    days hr:min        CMS
  --------------------------------------------------------------------------------------------------
  T5                       0.190      38     0     0         0.500     100       0  17:47      0.039
  T4                       0.191      38     0     0         0.500     100       0  18:14      0.028
  T6                       0.273      46     0     0         0.600     100       0  15:49      0.075
  T3                       0.936      36     0     0         2.600     100       0  19:02      0.124
  T2                       0.359      36     0     0         1.000     100       0  18:35      0.033
  T1                       0.263      38     0     0         0.700     100       0  17:13      0.271
  
  
  ***********************
  Outfall Loading Summary
  ***********************
  
  -----------------------------------------------------------
                         Flow       Avg       Max       Total
                         Freq      Flow      Flow      Volume
  Outfall Node           Pcnt       CMS       CMS    10^6 ltr
  -----------------------------------------------------------
  Out_to_WWTP           99.43     0.129     0.271      10.886
  -----------------------------------------------------------
  System                99.43     0.129     0.271      10.886
  
  
  ********************
  Link Flow Summary
  ********************
  
  -----------------------------------------------------------------------------
                                 Maximum  Time of Max   Maximum    Max/    Max/
                                  |Flow|   Occurrence   |Veloc|    Full    Full
  Link                 Type          CMS  days hr:min     m/sec    Flow   Depth
  -----------------------------------------------------------------------------
  C1                   CONDUIT     0.039     0  18:32      1.08    0.01    0.11
  C6                   CONDUIT     0.038     0  19:48      1.17    0.60    0.47
  C2                   CONDUIT     0.028     0  20:00      0.99    0.03    0.17
  C9                   CONDUIT     0.063     0  19:38      1.03    0.21    0.35
  C16                  CONDUIT     0.198     0  18:08      1.34    0.02    0.09
  C3                   CONDUIT     0.124     0  21:42      1.84    0.05    0.14
  C19                  CONDUIT     0.033     0  20:20      0.64    0.01    0.17
  C11                  CONDUIT     0.188     0  22:13      1.76    0.01    0.10
  C20                  CONDUIT     0.340     0  19:42      2.18    0.01    0.10
  C22                  CONDUIT     0.106     0  19:43      1.19    0.05    0.24
  C12                  CONDUIT     0.075     0  19:20      0.84    0.01    0.28
  C17                  CONDUIT     0.336     0  18:08      2.12    0.02    0.30
  C10                  CONDUIT     0.345     0  19:37      0.94    0.04    0.56
  C13                  CONDUIT     0.426     0  19:25      0.83    0.03    0.75
  C18                  CONDUIT     0.192     0  21:52      1.01    0.01    0.53
  C23                  CONDUIT     0.606     0  21:49      0.86    0.07    0.59
  C4                   CONDUIT     0.165     0  19:42      1.13    0.04    0.57
  C7                   CONDUIT     0.086     0  21:53      0.82    0.02    0.55
  C14                  CONDUIT     0.271     0  17:14      2.08    0.02    0.09
  C5                   CONDUIT     0.040     0  19:46      1.14    0.68    0.65
  C8                   CONDUIT     0.066     0  19:37      1.30    0.83    0.61
  C15                  CONDUIT     0.217     0  18:06      2.52    0.69    0.53
  C21                  CONDUIT     0.113     0  19:42      1.69    0.65    0.45
  V4                   ORIFICE     0.028     0  18:50                      0.35
  V5                   ORIFICE     0.039     0  17:47                      1.00
  V1                   ORIFICE     0.271     0  17:13                      1.00
  V6                   ORIFICE     0.075     0  15:50                      0.43
  V3                   ORIFICE     0.124     0  20:20                      0.65
  V2                   ORIFICE     0.033     0  19:40                      0.24
  
  
  ***************************
  Flow Classification Summary
  ***************************
  
  -------------------------------------------------------------------------------------
                      Adjusted    ---------- Fraction of Time in Flow Class ---------- 
                       /Actual         Up    Down  Sub   Sup   Up    Down  Norm  Inlet 
  Conduit               Length    Dry  Dry   Dry   Crit  Crit  Crit  Crit  Ltd   Ctrl  
  -------------------------------------------------------------------------------------
  C1                      1.00   0.00  0.00  0.00  0.09  0.91  0.00  0.00  0.96  0.00
  C6                      1.00   0.00  0.00  0.00  0.01  0.99  0.00  0.00  0.00  0.00
  C2                      1.00   0.00  0.00  0.00  0.55  0.45  0.00  0.00  0.97  0.00
  C9                      1.00   0.00  0.00  0.00  1.00  0.00  0.00  0.00  1.00  0.00
  C16                     1.00   0.00  0.25  0.00  0.32  0.42  0.00  0.00  0.30  0.00
  C3                      1.00   0.00  0.00  0.00  0.03  0.96  0.00  0.00  0.55  0.00
  C19                     1.00   0.00  0.00  0.00  1.00  0.00  0.00  0.00  1.00  0.00
  C11                     1.00   0.00  0.00  0.00  0.24  0.75  0.00  0.00  1.00  0.00
  C20                     1.00   0.00  0.00  0.00  0.59  0.41  0.00  0.00  0.99  0.00
  C22                     1.00   0.00  0.00  0.00  0.96  0.04  0.00  0.00  1.00  0.00
  C12                     1.00   0.00  0.00  0.00  0.71  0.29  0.00  0.00  0.93  0.00
  C17                     1.00   0.00  0.00  0.00  0.47  0.53  0.00  0.00  0.99  0.00
  C10                     1.00   0.00  0.00  0.00  0.94  0.06  0.00  0.00  0.98  0.00
  C13                     1.00   0.00  0.00  0.00  0.82  0.18  0.00  0.00  0.66  0.00
  C18                     1.00   0.00  0.00  0.00  0.94  0.06  0.00  0.00  0.98  0.00
  C23                     1.00   0.00  0.00  0.00  0.77  0.23  0.00  0.00  0.96  0.00
  C4                      1.00   0.00  0.00  0.00  0.82  0.18  0.00  0.00  0.98  0.00
  C7                      1.00   0.00  0.00  0.00  0.91  0.09  0.00  0.00  0.97  0.00
  C14                     1.00   0.00  0.00  0.00  0.00  1.00  0.00  0.00  0.28  0.00
  C5                      1.00   0.00  0.00  0.00  0.94  0.06  0.00  0.00  0.99  0.00
  C8                      1.00   0.00  0.00  0.00  0.15  0.85  0.00  0.00  0.00  0.00
  C15                     1.00   0.25  0.00  0.00  0.00  0.75  0.00  0.00  0.00  0.00
  C21                     1.00   0.00  0.00  0.00  0.00  1.00  0.00  0.00  0.00  0.00
  
  
  *************************
  Conduit Surcharge Summary
  *************************
  
  ----------------------------------------------------------------------------
                                                           Hours        Hours 
                         --------- Hours Full --------   Above Full   Capacity
  Conduit                Both Ends  Upstream  Dnstream   Normal Flow   Limited
  ----------------------------------------------------------------------------
  C10                         0.01      0.01     10.72      0.01         0.01
  C13                         0.01      0.01      8.22      0.01         0.01
  C18                         0.01      0.01      8.19      0.01         0.01
  C23                         0.01      0.01      8.95      0.01         0.01
  C4                          0.01      0.01     10.12      0.01         0.01
  C7                          0.01      0.01     11.51      0.01         0.01
  

  Analysis begun on:  Tue Sep 21 03:17:02 2021
  Analysis ended on:  Tue Sep 21 03:17:02 2021
  Total elapsed time: < 1 sec