
  EPA STORM WATER MANAGEMENT MODEL - VERSION 5.1 (Build 5.3.0.dev0)
  --------------------------------------------------------------

  WARNING 09: time series interval greater than recording interval for Rain Gage RG1
  WARNING 09: time series interval greater than recording interval for Rain Gage RG2
  WARNING 09: time series interval greater than recording interval for Rain Gage RG3
  WARNING 09: time series interval greater than recording interval for Rain Gage RG4
  
  *********************************************************
  NOTE: The summary statistics displayed in this report are
  based on results found at every computational time step,  
  not just on results from each reporting time step.
  *********************************************************
  
  ****************
  Analysis Options
  ****************
  Flow Units ............... CMS
  Process Models:
    Rainfall/Runoff ........ YES
    RDII ................... NO
    Snowmelt ............... NO
    Groundwater ............ NO
    Flow Routing ........... YES
    Ponding Allowed ........ YES
    Water Quality .......... NO
  Infiltration Method ...... HORTON
  Flow Routing Method ...... DYNWAVE
  Surcharge Method ......... EXTRAN
  Starting Date ............ 08/28/2015 00:00:00
  Ending Date .............. 08/28/2015 23:40:00
  Antecedent Dry Days ...... 0.0
  Report Time Step ......... 00:01:00
  Wet Time Step ............ 00:01:00
  Dry Time Step ............ 00:01:00
  Routing Time Step ........ 5.00 sec
  Variable Time Step ....... YES
  Maximum Trials ........... 8
  Number of Threads ........ 1
  Head Tolerance ........... 0.001500 m
  
  
  **************************        Volume         Depth
  Runoff Quantity Continuity     hectare-m            mm
  **************************     ---------       -------
  Total Precipitation ......         1.812        10.057
  Evaporation Loss .........         0.000         0.000
  Infiltration Loss ........         0.000         0.000
  Surface Runoff ...........         1.774         9.846
  Final Storage ............         0.041         0.226
  Continuity Error (%) .....        -0.150
  
  
  **************************        Volume        Volume
  Flow Routing Continuity        hectare-m      10^6 ltr
  **************************     ---------     ---------
  Dry Weather Inflow .......         0.758         7.576
  Wet Weather Inflow .......         1.774        17.742
  Groundwater Inflow .......         0.000         0.000
  RDII Inflow ..............         0.000         0.000
  External Inflow ..........         0.000         0.000
  External Outflow .........         1.059        10.589
  Flooding Loss ............         0.388         3.876
  Evaporation Loss .........         0.000         0.000
  Exfiltration Loss ........         0.000         0.000
  Initial Stored Volume ....         0.000         0.000
  Final Stored Volume ......         0.818         8.181
  Continuity Error (%) .....        10.554
  
  
  *************************
  Highest Continuity Errors
  *************************
  Node T2 (32.31%)
  Node T4 (18.85%)
  Node T3 (16.93%)
  Node T5 (16.38%)
  Node T6 (12.33%)
  
  
  ***************************
  Time-Step Critical Elements
  ***************************
  None
  
  
  ********************************
  Highest Flow Instability Indexes
  ********************************
  All links are stable.
  
  
  *************************
  Routing Time Step Summary
  *************************
  Minimum Time Step           :     4.50 sec
  Average Time Step           :     5.00 sec
  Maximum Time Step           :     5.00 sec
  Percent in Steady State     :     0.00
  Average Iterations per Step :     2.05
  Percent Not Converging      :     0.05
  
  
  ***************************
  Subcatchment Runoff Summary
  ***************************
  
  ------------------------------------------------------------------------------------------------------------------------------
                            Total      Total      Total      Total     Imperv       Perv      Total       Total     Peak  Runoff
                           Precip      Runon       Evap      Infil     Runoff     Runoff     Runoff      Runoff   Runoff   Coeff
  Subcatchment                 mm         mm         mm         mm         mm         mm         mm    10^6 ltr      CMS
  ------------------------------------------------------------------------------------------------------------------------------
  SC01                       9.04       0.00       0.00       0.00       8.92       0.00       8.92        2.94     0.87   0.987
  SC02                       8.41       0.00       0.00       0.00       8.28       0.00       8.28        1.88     0.54   0.985
  SC03                      11.43       0.00       0.00       0.00      11.38       0.00      11.38        2.05     1.60   0.996
  SC04                       8.41       0.00       0.00       0.00       8.07       0.00       8.07        0.56     0.09   0.960
  SC05                       9.04       0.00       0.00       0.00       8.91       0.00       8.91        1.39     0.38   0.985
  SC06                      11.45       0.00       0.00       0.00      10.98       0.00      10.98        3.58     0.73   0.959
  SC07                       8.41       0.00       0.00       0.00       8.08       0.00       8.08        0.38     0.06   0.960
  SC08                      11.43       0.00       0.00       0.00      11.24       0.00      11.24        3.15     1.41   0.983
  SC09                      11.45       0.00       0.00       0.00      11.21       0.00      11.21        0.77     0.22   0.979
  SC010                      9.04       0.00       0.00       0.00       8.86       0.00       8.86        1.04     0.23   0.980
  
  
  ******************
  Node Depth Summary
  ******************
  
  ---------------------------------------------------------------------------------
                                 Average  Maximum  Maximum  Time of Max    Reported
                                   Depth    Depth      HGL   Occurrence   Max Depth
  Node                 Type       Meters   Meters   Meters  days hr:min      Meters
  ---------------------------------------------------------------------------------
  J1                   JUNCTION     0.05     0.20    34.20     0  20:47        0.20
  J3                   JUNCTION     0.08     0.14    18.14     0  22:58        0.14
  CSO7                 JUNCTION     0.07     0.78    34.78     0  20:51        0.56
  J5                   JUNCTION     0.05     0.13    32.13     0  20:56        0.13
  CSO9                 JUNCTION     0.11     2.00    42.00     0  20:45        2.00
  J8                   JUNCTION     0.08     0.29    36.29     0  20:52        0.29
  CSO8                 JUNCTION     0.11     2.00    34.00     0  20:45        2.00
  J10                  JUNCTION     0.07     0.40    29.40     0  20:52        0.40
  J13                  JUNCTION     0.05     0.18    29.18     0  20:47        0.18
  J15                  JUNCTION     0.12     0.33    15.33     0  20:53        0.33
  J16                  JUNCTION     0.05     0.22    30.22     0  20:47        0.22
  CSO10                JUNCTION     0.08     1.00    31.00     0  20:46        1.00
  J12                  JUNCTION     0.19     1.03    27.03     0  21:22        1.03
  J4                   JUNCTION     0.09     0.27    33.27     0  20:58        0.27
  J6                   JUNCTION     0.04     0.07    25.07     0  22:03        0.07
  J2                   JUNCTION     0.05     0.08    25.08     0  21:37        0.08
  J19                  JUNCTION     0.11     0.17     8.17     0  21:03        0.17
  J9                   JUNCTION     0.07     0.11    29.11     0  19:08        0.11
  J14                  JUNCTION     0.08     0.15    20.15     0  22:31        0.15
  J17                  JUNCTION     0.04     0.08    20.08     0  22:10        0.08
  J7                   JUNCTION     0.06     0.23    39.23     0  21:02        0.23
  J11                  JUNCTION     0.07     0.30    31.30     0  21:09        0.30
  J18                  JUNCTION     0.04     0.16    29.16     0  20:52        0.16
  Out_to_WWTP          OUTFALL      0.11     0.17     6.17     0  21:46        0.17
  T5                   STORAGE      1.73     5.00    32.00     0  21:17        5.00
  T4                   STORAGE      1.68     4.88    31.88     0  22:01        4.88
  T6                   STORAGE      2.37     5.00    36.00     0  16:44        5.00
  T3                   STORAGE      1.64     5.00    27.00     0  21:13        5.00
  T2                   STORAGE      1.57     5.00    26.00     0  21:40        5.00
  T1                   STORAGE      1.64     5.00    15.00     0  21:01        5.00
  
  
  *******************
  Node Inflow Summary
  *******************
  
  -------------------------------------------------------------------------------------------------
                                  Maximum  Maximum                  Lateral       Total        Flow
                                  Lateral    Total  Time of Max      Inflow      Inflow     Balance
                                   Inflow   Inflow   Occurrence      Volume      Volume       Error
  Node                 Type           CMS      CMS  days hr:min    10^6 ltr    10^6 ltr     Percent
  -------------------------------------------------------------------------------------------------
  J1                   JUNCTION     0.394    0.394     0  20:46        2.48        2.48      -0.013
  J3                   JUNCTION     0.000    0.188     0  22:55           0        6.08       0.605
  CSO7                 JUNCTION     0.071    0.071     0  20:51       0.949       0.949       0.037
  J5                   JUNCTION     0.097    0.148     0  20:56       0.805        1.75       0.067
  CSO9                 JUNCTION     0.228    0.228     0  20:46        1.15        1.15      -0.015
  J8                   JUNCTION     0.750    0.862     0  20:51        5.41        6.51       0.088
  CSO8                 JUNCTION     1.407    1.407     0  20:51        3.59        3.59      -0.001
  J10                  JUNCTION     1.607    2.038     0  20:51         2.8        5.96      -0.145
  J13                  JUNCTION     0.551    0.551     0  20:46        2.79        2.79      -0.069
  J15                  JUNCTION     0.000    1.101     0  20:47           0        12.3       0.684
  J16                  JUNCTION     0.887    0.887     0  20:46        4.02        4.02      -0.041
  CSO10                JUNCTION     0.236    0.236     0  20:46        1.31        1.31      -0.017
  J12                  JUNCTION     0.000    1.751     0  20:52           0        8.76       9.505
  J4                   JUNCTION     0.000    0.070     0  20:51           0       0.948       0.160
  J6                   JUNCTION     0.000    0.028     0  22:01           0        0.97       0.424
  J2                   JUNCTION     0.000    0.039     0  21:17           0        1.65       0.323
  J19                  JUNCTION     0.000    0.271     0  21:01           0        10.6       0.109
  J9                   JUNCTION     0.000    0.075     0  16:50           0        2.74       0.190
  J14                  JUNCTION     0.000    0.124     0  21:30           0        3.48       0.206
  J17                  JUNCTION     0.000    0.033     0  22:00           0       0.921       0.655
  J7                   JUNCTION     0.000    0.127     0  21:02           0        1.11       0.172
  J11                  JUNCTION     0.000    0.486     0  21:09           0        3.17       0.190
  J18                  JUNCTION     0.000    0.202     0  20:51           0        1.31       0.068
  Out_to_WWTP          OUTFALL      0.000    0.271     0  21:03           0        10.6       0.000
  T5                   STORAGE      0.000    0.350     0  20:47           0        2.48      19.586
  T4                   STORAGE      0.000    0.145     0  20:56           0        1.75      23.235
  T6                   STORAGE      0.000    0.818     0  20:52           0        6.51      14.063
  T3                   STORAGE      0.000    1.450     0  20:54           0           8      20.380
  T2                   STORAGE      0.000    0.476     0  20:47           0         2.8      47.740
  T1                   STORAGE      0.000    0.958     0  20:53           0        12.2       5.618
  
  
  **********************
  Node Surcharge Summary
  **********************
  
  Surcharging occurs when water rises above the top of the highest conduit.
  ---------------------------------------------------------------------
                                               Max. Height   Min. Depth
                                   Hours       Above Crown    Below Rim
  Node                 Type      Surcharged         Meters       Meters
  ---------------------------------------------------------------------
  CSO7                 JUNCTION        0.17          0.526        0.419
  CSO9                 JUNCTION        0.45          1.682        0.000
  CSO8                 JUNCTION        0.50          1.547        0.000
  CSO10                JUNCTION        0.16          0.560        0.000
  
  
  *********************
  Node Flooding Summary
  *********************
  
  Flooding refers to all water that overflows a node, whether it ponds or not.
  --------------------------------------------------------------------------
                                                             Total   Maximum
                                 Maximum   Time of Max       Flood    Ponded
                        Hours       Rate    Occurrence      Volume     Depth
  Node                 Flooded       CMS   days hr:min    10^6 ltr    Meters
  --------------------------------------------------------------------------
  CSO9                    0.29     0.111      0  20:46       0.048     0.000
  CSO8                    0.36     0.924      0  20:51       0.426     0.000
  CSO10                   0.04     0.059      0  20:46       0.002     0.000
  T5                      0.33     0.047      0  21:17       0.022     0.000
  T6                      5.16     0.755      0  20:57       2.396     0.000
  T3                      0.67     0.953      0  21:13       0.547     0.000
  T2                      0.28     0.030      0  21:40       0.018     0.000
  T1                      0.64     0.544      0  21:01       0.417     0.000
  
  
  **********************
  Storage Volume Summary
  **********************
  
  --------------------------------------------------------------------------------------------------
                         Average     Avg  Evap Exfil       Maximum     Max    Time of Max    Maximum
                          Volume    Pcnt  Pcnt  Pcnt        Volume    Pcnt     Occurrence    Outflow
  Storage Unit           1000 m3    Full  Loss  Loss       1000 m3    Full    days hr:min        CMS
  --------------------------------------------------------------------------------------------------
  T5                       0.173      35     0     0         0.500     100       0  21:17      0.039
  T4                       0.168      34     0     0         0.488      98       0  22:01      0.028
  T6                       0.285      47     0     0         0.600     100       0  16:44      0.075
  T3                       0.855      33     0     0         2.600     100       0  21:13      0.394
  T2                       0.314      31     0     0         1.000     100       0  21:40      0.033
  T1                       0.229      33     0     0         0.700     100       0  21:01      0.271
  
  
  ***********************
  Outfall Loading Summary
  ***********************
  
  -----------------------------------------------------------
                         Flow       Avg       Max       Total
                         Freq      Flow      Flow      Volume
  Outfall Node           Pcnt       CMS       CMS    10^6 ltr
  -----------------------------------------------------------
  Out_to_WWTP           99.43     0.125     0.271      10.589
  -----------------------------------------------------------
  System                99.43     0.125     0.271      10.589
  
  
  ********************
  Link Flow Summary
  ********************
  
  -----------------------------------------------------------------------------
                                 Maximum  Time of Max   Maximum    Max/    Max/
                                  |Flow|   Occurrence   |Veloc|    Full    Full
  Link                 Type          CMS  days hr:min     m/sec    Flow   Depth
  -----------------------------------------------------------------------------
  C1                   CONDUIT     0.039     0  21:37      1.05    0.01    0.11
  C6                   CONDUIT     0.060     0  21:00      1.27    0.95    0.67
  C2                   CONDUIT     0.028     0  22:03      0.98    0.03    0.17
  C9                   CONDUIT     0.127     0  21:02      1.29    0.43    0.52
  C16                  CONDUIT     0.486     0  21:03      1.80    0.05    0.17
  C3                   CONDUIT     0.124     0  22:32      1.82    0.05    0.14
  C19                  CONDUIT     0.033     0  22:10      0.66    0.01    0.19
  C11                  CONDUIT     0.188     0  22:58      1.81    0.01    0.11
  C20                  CONDUIT     0.786     0  20:47      3.83    0.02    0.13
  C22                  CONDUIT     0.193     0  20:52      1.52    0.09    0.30
  C12                  CONDUIT     0.075     0  18:00      1.15    0.01    0.29
  C17                  CONDUIT     1.680     0  20:52      4.11    0.08    0.31
  C10                  CONDUIT     0.818     0  20:52      0.94    0.08    0.60
  C13                  CONDUIT     1.450     0  20:54      0.90    0.09    0.76
  C18                  CONDUIT     0.476     0  20:47      1.01    0.02    0.55
  C23                  CONDUIT     0.958     0  20:53      0.87    0.11    0.61
  C4                   CONDUIT     0.350     0  20:47      1.13    0.08    0.60
  C7                   CONDUIT     0.145     0  20:56      0.82    0.04    0.56
  C14                  CONDUIT     0.271     0  21:03      2.08    0.02    0.09
  C5                   CONDUIT     0.070     0  20:51      1.44    1.20    1.00
  C8                   CONDUIT     0.127     0  21:02      1.93    1.60    0.86
  C15                  CONDUIT     0.486     0  21:09      3.80    1.55    0.83
  C21                  CONDUIT     0.202     0  20:51      1.92    1.15    0.68
  V4                   ORIFICE     0.028     0  22:01                      0.35
  V5                   ORIFICE     0.039     0  21:17                      1.00
  V1                   ORIFICE     0.271     0  21:01                      1.00
  V6                   ORIFICE     0.075     0  16:50                      0.43
  V3                   ORIFICE     0.124     0  21:30                      0.65
  V2                   ORIFICE     0.033     0  22:00                      0.24
  
  
  ***************************
  Flow Classification Summary
  ***************************
  
  -------------------------------------------------------------------------------------
                      Adjusted    ---------- Fraction of Time in Flow Class ---------- 
                       /Actual         Up    Down  Sub   Sup   Up    Down  Norm  Inlet 
  Conduit               Length    Dry  Dry   Dry   Crit  Crit  Crit  Crit  Ltd   Ctrl  
  -------------------------------------------------------------------------------------
  C1                      1.00   0.00  0.00  0.00  0.15  0.85  0.00  0.00  0.96  0.00
  C6                      1.00   0.00  0.00  0.00  0.02  0.98  0.00  0.00  0.00  0.00
  C2                      1.00   0.00  0.00  0.00  0.54  0.46  0.00  0.00  0.97  0.00
  C9                      1.00   0.00  0.00  0.00  1.00  0.00  0.00  0.00  1.00  0.00
  C16                     1.00   0.00  0.02  0.00  0.56  0.41  0.00  0.00  0.56  0.00
  C3                      1.00   0.00  0.00  0.00  0.04  0.96  0.00  0.00  0.59  0.00
  C19                     1.00   0.00  0.00  0.00  1.00  0.00  0.00  0.00  1.00  0.00
  C11                     1.00   0.00  0.00  0.00  0.11  0.89  0.00  0.00  1.00  0.00
  C20                     1.00   0.00  0.00  0.00  0.62  0.38  0.00  0.00  0.99  0.00
  C22                     1.00   0.00  0.00  0.00  0.98  0.02  0.00  0.00  1.00  0.00
  C12                     1.00   0.00  0.00  0.00  0.73  0.27  0.00  0.00  0.96  0.00
  C17                     1.00   0.00  0.00  0.00  0.34  0.66  0.00  0.00  0.99  0.00
  C10                     1.00   0.00  0.00  0.00  0.94  0.06  0.00  0.00  0.98  0.00
  C13                     1.00   0.00  0.00  0.00  0.86  0.14  0.00  0.00  0.81  0.00
  C18                     1.00   0.00  0.00  0.00  0.95  0.05  0.00  0.00  0.98  0.00
  C23                     1.00   0.00  0.00  0.00  0.77  0.23  0.00  0.00  0.96  0.00
  C4                      1.00   0.00  0.00  0.00  0.82  0.18  0.00  0.00  0.98  0.00
  C7                      1.00   0.00  0.00  0.00  0.94  0.06  0.00  0.00  0.97  0.00
  C14                     1.00   0.00  0.00  0.00  0.00  1.00  0.00  0.00  0.42  0.00
  C5                      1.00   0.00  0.00  0.00  0.91  0.09  0.00  0.00  0.98  0.00
  C8                      1.00   0.00  0.00  0.00  0.19  0.81  0.00  0.00  0.00  0.00
  C15                     1.00   0.02  0.00  0.00  0.00  0.98  0.00  0.00  0.00  0.00
  C21                     1.00   0.00  0.00  0.00  0.00  1.00  0.00  0.00  0.00  0.00
  
  
  *************************
  Conduit Surcharge Summary
  *************************
  
  ----------------------------------------------------------------------------
                                                           Hours        Hours 
                         --------- Hours Full --------   Above Full   Capacity
  Conduit                Both Ends  Upstream  Dnstream   Normal Flow   Limited
  ----------------------------------------------------------------------------
  C10                         0.01      0.01     12.36      0.01         0.01
  C13                         0.01      0.01      8.15      0.01         0.01
  C18                         0.01      0.01      8.13      0.01         0.01
  C23                         0.01      0.01     10.12      0.01         0.01
  C4                          0.01      0.01     12.58      0.01         0.01
  C7                          0.01      0.01     12.41      0.01         0.01
  C5                          0.10      0.17      0.16      0.22         0.09
  C8                          0.01      0.45      0.01      0.47         0.01
  C15                         0.01      0.50      0.01      0.52         0.01
  C21                         0.01      0.16      0.01      0.13         0.01
  

  Analysis begun on:  Tue Sep 21 03:25:35 2021
  Analysis ended on:  Tue Sep 21 03:25:35 2021
  Total elapsed time: < 1 sec