
  EPA STORM WATER MANAGEMENT MODEL - VERSION 5.1 (Build 5.3.0.dev0)
  --------------------------------------------------------------

  WARNING 09: time series interval greater than recording interval for Rain Gage RG1
  WARNING 09: time series interval greater than recording interval for Rain Gage RG2
  WARNING 09: time series interval greater than recording interval for Rain Gage RG3
  WARNING 09: time series interval greater than recording interval for Rain Gage RG4
  
  *********************************************************
  NOTE: The summary statistics displayed in this report are
  based on results found at every computational time step,  
  not just on results from each reporting time step.
  *********************************************************
  
  ****************
  Analysis Options
  ****************
  Flow Units ............... CMS
  Process Models:
    Rainfall/Runoff ........ YES
    RDII ................... NO
    Snowmelt ............... NO
    Groundwater ............ NO
    Flow Routing ........... YES
    Ponding Allowed ........ YES
    Water Quality .......... NO
  Infiltration Method ...... HORTON
  Flow Routing Method ...... DYNWAVE
  Surcharge Method ......... EXTRAN
  Starting Date ............ 08/28/2015 00:00:00
  Ending Date .............. 08/28/2015 23:40:00
  Antecedent Dry Days ...... 0.0
  Report Time Step ......... 00:01:00
  Wet Time Step ............ 00:01:00
  Dry Time Step ............ 00:01:00
  Routing Time Step ........ 5.00 sec
  Variable Time Step ....... YES
  Maximum Trials ........... 8
  Number of Threads ........ 1
  Head Tolerance ........... 0.001500 m
  
  
  **************************        Volume         Depth
  Runoff Quantity Continuity     hectare-m            mm
  **************************     ---------       -------
  Total Precipitation ......         1.184         6.572
  Evaporation Loss .........         0.000         0.000
  Infiltration Loss ........         0.000         0.000
  Surface Runoff ...........         0.920         5.107
  Final Storage ............         0.270         1.500
  Continuity Error (%) .....        -0.516
  
  
  **************************        Volume        Volume
  Flow Routing Continuity        hectare-m      10^6 ltr
  **************************     ---------     ---------
  Dry Weather Inflow .......         0.758         7.576
  Wet Weather Inflow .......         0.914         9.142
  Groundwater Inflow .......         0.000         0.000
  RDII Inflow ..............         0.000         0.000
  External Inflow ..........         0.000         0.000
  External Outflow .........         0.688         6.880
  Flooding Loss ............         0.006         0.059
  Evaporation Loss .........         0.000         0.000
  Exfiltration Loss ........         0.000         0.000
  Initial Stored Volume ....         0.000         0.000
  Final Stored Volume ......         0.744         7.438
  Continuity Error (%) .....        13.993
  
  
  *************************
  Highest Continuity Errors
  *************************
  Node T2 (34.41%)
  Node T6 (23.87%)
  Node T3 (20.54%)
  Node T4 (20.08%)
  Node T5 (18.33%)
  
  
  ***************************
  Time-Step Critical Elements
  ***************************
  None
  
  
  ********************************
  Highest Flow Instability Indexes
  ********************************
  All links are stable.
  
  
  *************************
  Routing Time Step Summary
  *************************
  Minimum Time Step           :     4.50 sec
  Average Time Step           :     5.00 sec
  Maximum Time Step           :     5.00 sec
  Percent in Steady State     :     0.00
  Average Iterations per Step :     2.04
  Percent Not Converging      :     0.05
  
  
  ***************************
  Subcatchment Runoff Summary
  ***************************
  
  ------------------------------------------------------------------------------------------------------------------------------
                            Total      Total      Total      Total     Imperv       Perv      Total       Total     Peak  Runoff
                           Precip      Runon       Evap      Infil     Runoff     Runoff     Runoff      Runoff   Runoff   Coeff
  Subcatchment                 mm         mm         mm         mm         mm         mm         mm    10^6 ltr      CMS
  ------------------------------------------------------------------------------------------------------------------------------
  SC01                       6.07       0.00       0.00       0.00       4.80       0.00       4.80        1.58     0.50   0.791
  SC02                       6.29       0.00       0.00       0.00       5.12       0.00       5.12        1.17     0.25   0.814
  SC03                       8.80       0.00       0.00       0.00       7.65       0.00       7.65        1.38     0.52   0.870
  SC04                       6.29       0.00       0.00       0.00       4.53       0.00       4.53        0.31     0.05   0.721
  SC05                       6.07       0.00       0.00       0.00       4.74       0.00       4.74        0.74     0.22   0.780
  SC06                       4.99       0.00       0.00       0.00       3.43       0.00       3.43        1.12     0.16   0.687
  SC07                       6.29       0.00       0.00       0.00       4.54       0.00       4.54        0.22     0.04   0.721
  SC08                       8.80       0.00       0.00       0.00       6.76       0.00       6.76        1.89     0.62   0.768
  SC09                       4.99       0.00       0.00       0.00       3.79       0.00       3.79        0.26     0.04   0.760
  SC010                      6.07       0.00       0.00       0.00       4.56       0.00       4.56        0.54     0.15   0.752
  
  
  ******************
  Node Depth Summary
  ******************
  
  ---------------------------------------------------------------------------------
                                 Average  Maximum  Maximum  Time of Max    Reported
                                   Depth    Depth      HGL   Occurrence   Max Depth
  Node                 Type       Meters   Meters   Meters  days hr:min      Meters
  ---------------------------------------------------------------------------------
  J1                   JUNCTION     0.05     0.15    34.15     0  23:37        0.15
  J3                   JUNCTION     0.07     0.13    18.13     0  23:40        0.13
  CSO7                 JUNCTION     0.06     0.15    34.15     0  23:36        0.15
  J5                   JUNCTION     0.04     0.10    32.10     0  23:39        0.10
  CSO9                 JUNCTION     0.06     0.16    40.16     0  21:11        0.16
  J8                   JUNCTION     0.07     0.14    36.14     0  21:17        0.14
  CSO8                 JUNCTION     0.08     2.00    34.00     0  23:16        2.00
  J10                  JUNCTION     0.06     0.28    29.28     0  23:32        0.28
  J13                  JUNCTION     0.04     0.13    29.13     0  23:37        0.13
  J15                  JUNCTION     0.10     0.27    15.27     0  23:40        0.27
  J16                  JUNCTION     0.04     0.17    30.17     0  23:37        0.17
  CSO10                JUNCTION     0.06     0.33    30.33     0  23:37        0.33
  J12                  JUNCTION     0.08     0.44    26.44     0  23:40        0.44
  J4                   JUNCTION     0.08     0.16    33.16     0  23:40        0.16
  J6                   JUNCTION     0.04     0.06    25.06     0  23:11        0.06
  J2                   JUNCTION     0.04     0.07    25.07     0  23:40        0.07
  J19                  JUNCTION     0.09     0.16     8.16     0  23:40        0.16
  J9                   JUNCTION     0.06     0.10    29.10     0  22:30        0.10
  J14                  JUNCTION     0.07     0.15    20.15     0  23:39        0.15
  J17                  JUNCTION     0.03     0.07    20.07     0  23:10        0.07
  J7                   JUNCTION     0.05     0.12    39.12     0  21:14        0.12
  J11                  JUNCTION     0.05     0.30    31.30     0  23:38        0.30
  J18                  JUNCTION     0.03     0.13    29.13     0  23:39        0.13
  Out_to_WWTP          OUTFALL      0.09     0.16     6.16     0  23:40        0.16
  T5                   STORAGE      0.79     3.29    30.29     0  23:40        3.29
  T4                   STORAGE      0.94     3.58    30.58     0  23:40        3.58
  T6                   STORAGE      1.38     5.00    36.00     0  23:36        5.00
  T3                   STORAGE      0.82     4.44    26.44     0  23:39        4.44
  T2                   STORAGE      0.77     3.66    24.66     0  23:40        3.66
  T1                   STORAGE      0.71     3.99    13.99     0  23:40        3.99
  
  
  *******************
  Node Inflow Summary
  *******************
  
  -------------------------------------------------------------------------------------------------
                                  Maximum  Maximum                  Lateral       Total        Flow
                                  Lateral    Total  Time of Max      Inflow      Inflow     Balance
                                   Inflow   Inflow   Occurrence      Volume      Volume       Error
  Node                 Type           CMS      CMS  days hr:min    10^6 ltr    10^6 ltr     Percent
  -------------------------------------------------------------------------------------------------
  J1                   JUNCTION     0.227    0.227     0  23:36        1.83        1.83       0.658
  J3                   JUNCTION     0.000    0.161     0  23:40           0        4.31       0.780
  CSO7                 JUNCTION     0.039    0.039     0  23:36        0.78        0.78       0.181
  J5                   JUNCTION     0.055    0.081     0  23:37       0.559        1.33       0.733
  CSO9                 JUNCTION     0.041    0.041     0  21:11       0.642       0.642       0.284
  J8                   JUNCTION     0.163    0.194     0  23:36        2.94        3.57       0.820
  CSO8                 JUNCTION     0.624    0.624     0  23:31        2.33        2.33       0.322
  J10                  JUNCTION     0.523    0.958     0  23:31        2.12        4.33       2.039
  J13                  JUNCTION     0.257    0.257     0  23:36        2.07        2.07       0.795
  J15                  JUNCTION     0.000    0.730     0  23:37           0         8.3       2.129
  J16                  JUNCTION     0.505    0.505     0  23:36        2.65        2.65       0.868
  CSO10                JUNCTION     0.147    0.147     0  23:36       0.803       0.803       0.624
  J12                  JUNCTION     0.000    0.907     0  23:32           0        6.31       4.690
  J4                   JUNCTION     0.000    0.037     0  23:37           0       0.778       1.231
  J6                   JUNCTION     0.000    0.023     0  23:10           0       0.695       0.333
  J2                   JUNCTION     0.000    0.032     0  23:40           0        1.15       0.422
  J19                  JUNCTION     0.000    0.241     0  23:40           0        6.89       0.169
  J9                   JUNCTION     0.000    0.069     0  22:50           0        2.07       0.366
  J14                  JUNCTION     0.000    0.116     0  23:39           0        2.48       0.282
  J17                  JUNCTION     0.000    0.027     0  23:10           0       0.613       0.498
  J7                   JUNCTION     0.000    0.039     0  21:12           0        0.64       1.650
  J11                  JUNCTION     0.000    0.486     0  23:38           0        2.29       3.438
  J18                  JUNCTION     0.000    0.138     0  23:37           0       0.798       2.107
  Out_to_WWTP          OUTFALL      0.000    0.240     0  23:40           0        6.88       0.000
  T5                   STORAGE      0.000    0.203     0  23:37           0        1.81      22.439
  T4                   STORAGE      0.000    0.080     0  23:39           0        1.32      25.120
  T6                   STORAGE      0.000    0.186     0  21:17           0        3.54      31.348
  T3                   STORAGE      0.000    0.866     0  23:34           0        6.02      25.847
  T2                   STORAGE      0.000    0.231     0  23:37           0        2.05      52.469
  T1                   STORAGE      0.000    0.621     0  23:40           0        8.12       9.022
  
  
  **********************
  Node Surcharge Summary
  **********************
  
  Surcharging occurs when water rises above the top of the highest conduit.
  ---------------------------------------------------------------------
                                               Max. Height   Min. Depth
                                   Hours       Above Crown    Below Rim
  Node                 Type      Surcharged         Meters       Meters
  ---------------------------------------------------------------------
  CSO8                 JUNCTION        0.38          1.547        0.000
  
  
  *********************
  Node Flooding Summary
  *********************
  
  Flooding refers to all water that overflows a node, whether it ponds or not.
  --------------------------------------------------------------------------
                                                             Total   Maximum
                                 Maximum   Time of Max       Flood    Ponded
                        Hours       Rate    Occurrence      Volume     Depth
  Node                 Flooded       CMS   days hr:min    10^6 ltr    Meters
  --------------------------------------------------------------------------
  CSO8                    0.15     0.141      0  23:31       0.028     0.000
  T6                      0.06     0.155      0  23:39       0.032     0.000
  
  
  **********************
  Storage Volume Summary
  **********************
  
  --------------------------------------------------------------------------------------------------
                         Average     Avg  Evap Exfil       Maximum     Max    Time of Max    Maximum
                          Volume    Pcnt  Pcnt  Pcnt        Volume    Pcnt     Occurrence    Outflow
  Storage Unit           1000 m3    Full  Loss  Loss       1000 m3    Full    days hr:min        CMS
  --------------------------------------------------------------------------------------------------
  T5                       0.079      16     0     0         0.329      66       0  23:40      0.032
  T4                       0.094      19     0     0         0.358      72       0  23:40      0.023
  T6                       0.165      28     0     0         0.600     100       0  23:36      0.069
  T3                       0.426      16     0     0         2.311      89       0  23:39      0.116
  T2                       0.154      15     0     0         0.733      73       0  23:40      0.027
  T1                       0.099      14     0     0         0.559      80       0  23:40      0.241
  
  
  ***********************
  Outfall Loading Summary
  ***********************
  
  -----------------------------------------------------------
                         Flow       Avg       Max       Total
                         Freq      Flow      Flow      Volume
  Outfall Node           Pcnt       CMS       CMS    10^6 ltr
  -----------------------------------------------------------
  Out_to_WWTP           99.43     0.081     0.240       6.880
  -----------------------------------------------------------
  System                99.43     0.081     0.240       6.880
  
  
  ********************
  Link Flow Summary
  ********************
  
  -----------------------------------------------------------------------------
                                 Maximum  Time of Max   Maximum    Max/    Max/
                                  |Flow|   Occurrence   |Veloc|    Full    Full
  Link                 Type          CMS  days hr:min     m/sec    Flow   Depth
  -----------------------------------------------------------------------------
  C1                   CONDUIT     0.031     0  23:40      0.96    0.01    0.10
  C6                   CONDUIT     0.033     0  23:40      1.10    0.52    0.44
  C2                   CONDUIT     0.021     0  23:11      0.90    0.02    0.15
  C9                   CONDUIT     0.037     0  21:14      0.90    0.13    0.26
  C16                  CONDUIT     0.483     0  23:38      1.76    0.05    0.14
  C3                   CONDUIT     0.116     0  23:40      1.81    0.04    0.14
  C19                  CONDUIT     0.026     0  23:10      0.53    0.01    0.16
  C11                  CONDUIT     0.159     0  23:40      1.39    0.01    0.10
  C20                  CONDUIT     0.452     0  23:37      2.70    0.01    0.10
  C22                  CONDUIT     0.124     0  23:39      1.31    0.06    0.25
  C12                  CONDUIT     0.067     0  22:30      1.00    0.01    0.13
  C17                  CONDUIT     0.878     0  23:32      3.08    0.04    0.18
  C10                  CONDUIT     0.186     0  21:17      0.94    0.02    0.55
  C13                  CONDUIT     0.866     0  23:34      0.83    0.05    0.61
  C18                  CONDUIT     0.231     0  23:37      1.01    0.01    0.53
  C23                  CONDUIT     0.621     0  23:40      0.84    0.07    0.59
  C4                   CONDUIT     0.203     0  23:37      1.13    0.05    0.58
  C7                   CONDUIT     0.080     0  23:39      0.82    0.02    0.55
  C14                  CONDUIT     0.240     0  23:40      2.01    0.01    0.08
  C5                   CONDUIT     0.037     0  23:37      1.20    0.64    0.60
  C8                   CONDUIT     0.039     0  21:12      1.16    0.49    0.45
  C15                  CONDUIT     0.486     0  23:38      3.52    1.55    0.83
  C21                  CONDUIT     0.138     0  23:37      1.79    0.79    0.51
  V4                   ORIFICE     0.023     0  23:10                      0.35
  V5                   ORIFICE     0.032     0  23:40                      1.00
  V1                   ORIFICE     0.241     0  23:40                      1.00
  V6                   ORIFICE     0.069     0  22:50                      0.43
  V3                   ORIFICE     0.116     0  23:39                      0.65
  V2                   ORIFICE     0.027     0  23:10                      0.24
  
  
  ***************************
  Flow Classification Summary
  ***************************
  
  -------------------------------------------------------------------------------------
                      Adjusted    ---------- Fraction of Time in Flow Class ---------- 
                       /Actual         Up    Down  Sub   Sup   Up    Down  Norm  Inlet 
  Conduit               Length    Dry  Dry   Dry   Crit  Crit  Crit  Crit  Ltd   Ctrl  
  -------------------------------------------------------------------------------------
  C1                      1.00   0.00  0.00  0.00  0.16  0.84  0.00  0.00  0.96  0.00
  C6                      1.00   0.00  0.00  0.00  0.01  0.99  0.00  0.00  0.00  0.00
  C2                      1.00   0.00  0.00  0.00  0.56  0.44  0.00  0.00  0.97  0.00
  C9                      1.00   0.00  0.00  0.00  1.00  0.00  0.00  0.00  1.00  0.00
  C16                     1.00   0.00  0.25  0.00  0.60  0.14  0.00  0.00  0.49  0.00
  C3                      1.00   0.00  0.00  0.00  0.04  0.96  0.00  0.00  0.56  0.00
  C19                     1.00   0.00  0.00  0.00  1.00  0.00  0.00  0.00  1.00  0.00
  C11                     1.00   0.00  0.00  0.00  0.08  0.92  0.00  0.00  1.00  0.00
  C20                     1.00   0.00  0.00  0.00  0.80  0.20  0.00  0.00  0.99  0.00
  C22                     1.00   0.00  0.00  0.00  0.98  0.01  0.00  0.00  1.00  0.00
  C12                     1.00   0.00  0.00  0.00  0.52  0.48  0.00  0.00  0.84  0.00
  C17                     1.00   0.00  0.00  0.00  0.36  0.64  0.00  0.00  0.98  0.00
  C10                     1.00   0.00  0.00  0.00  0.96  0.04  0.00  0.00  0.98  0.00
  C13                     1.00   0.00  0.00  0.00  0.81  0.19  0.00  0.00  0.92  0.00
  C18                     1.00   0.00  0.00  0.00  0.92  0.08  0.00  0.00  0.98  0.00
  C23                     1.00   0.00  0.00  0.00  0.77  0.23  0.00  0.00  0.96  0.00
  C4                      1.00   0.00  0.00  0.00  0.82  0.18  0.00  0.00  0.98  0.00
  C7                      1.00   0.00  0.00  0.00  0.90  0.10  0.00  0.00  0.97  0.00
  C14                     1.00   0.00  0.00  0.00  0.00  1.00  0.00  0.00  0.57  0.00
  C5                      1.00   0.00  0.00  0.00  0.92  0.08  0.00  0.00  0.99  0.00
  C8                      1.00   0.00  0.00  0.00  0.14  0.86  0.00  0.00  0.00  0.00
  C15                     1.00   0.25  0.00  0.00  0.03  0.71  0.00  0.00  0.03  0.00
  C21                     1.00   0.00  0.00  0.00  0.00  1.00  0.00  0.00  0.00  0.00
  
  
  *************************
  Conduit Surcharge Summary
  *************************
  
  ----------------------------------------------------------------------------
                                                           Hours        Hours 
                         --------- Hours Full --------   Above Full   Capacity
  Conduit                Both Ends  Upstream  Dnstream   Normal Flow   Limited
  ----------------------------------------------------------------------------
  C10                         0.01      0.01     11.09      0.01         0.01
  C13                         0.01      0.01      2.58      0.01         0.01
  C18                         0.01      0.01      2.30      0.01         0.01
  C23                         0.01      0.01      2.70      0.01         0.01
  C4                          0.01      0.01      5.48      0.01         0.01
  C7                          0.01      0.01     11.21      0.01         0.01
  C15                         0.01      0.38      0.01      0.40         0.01
  

  Analysis begun on:  Tue Sep 21 03:41:24 2021
  Analysis ended on:  Tue Sep 21 03:41:24 2021
  Total elapsed time: < 1 sec