
  EPA STORM WATER MANAGEMENT MODEL - VERSION 5.1 (Build 5.3.0.dev0)
  --------------------------------------------------------------

  WARNING 09: time series interval greater than recording interval for Rain Gage RG1
  WARNING 09: time series interval greater than recording interval for Rain Gage RG2
  WARNING 09: time series interval greater than recording interval for Rain Gage RG3
  WARNING 09: time series interval greater than recording interval for Rain Gage RG4
  
  *********************************************************
  NOTE: The summary statistics displayed in this report are
  based on results found at every computational time step,  
  not just on results from each reporting time step.
  *********************************************************
  
  ****************
  Analysis Options
  ****************
  Flow Units ............... CMS
  Process Models:
    Rainfall/Runoff ........ YES
    RDII ................... NO
    Snowmelt ............... NO
    Groundwater ............ NO
    Flow Routing ........... YES
    Ponding Allowed ........ YES
    Water Quality .......... NO
  Infiltration Method ...... HORTON
  Flow Routing Method ...... DYNWAVE
  Surcharge Method ......... EXTRAN
  Starting Date ............ 08/28/2015 00:00:00
  Ending Date .............. 08/28/2015 23:40:00
  Antecedent Dry Days ...... 0.0
  Report Time Step ......... 00:01:00
  Wet Time Step ............ 00:01:00
  Dry Time Step ............ 00:01:00
  Routing Time Step ........ 5.00 sec
  Variable Time Step ....... YES
  Maximum Trials ........... 8
  Number of Threads ........ 1
  Head Tolerance ........... 0.001500 m
  
  
  **************************        Volume         Depth
  Runoff Quantity Continuity     hectare-m            mm
  **************************     ---------       -------
  Total Precipitation ......         1.965        10.903
  Evaporation Loss .........         0.000         0.000
  Infiltration Loss ........         0.000         0.000
  Surface Runoff ...........         1.921        10.660
  Final Storage ............         0.047         0.261
  Continuity Error (%) .....        -0.162
  
  
  **************************        Volume        Volume
  Flow Routing Continuity        hectare-m      10^6 ltr
  **************************     ---------     ---------
  Dry Weather Inflow .......         0.758         7.576
  Wet Weather Inflow .......         1.921        19.208
  Groundwater Inflow .......         0.000         0.000
  RDII Inflow ..............         0.000         0.000
  External Inflow ..........         0.000         0.000
  External Outflow .........         1.240        12.401
  Flooding Loss ............         0.469         4.691
  Evaporation Loss .........         0.000         0.000
  Exfiltration Loss ........         0.000         0.000
  Initial Stored Volume ....         0.000         0.000
  Final Stored Volume ......         0.743         7.432
  Continuity Error (%) .....         8.439
  
  
  *************************
  Highest Continuity Errors
  *************************
  Node T2 (27.00%)
  Node T3 (17.23%)
  Node T4 (14.24%)
  Node T6 (12.68%)
  Node T5 (9.42%)
  
  
  ***************************
  Time-Step Critical Elements
  ***************************
  None
  
  
  ********************************
  Highest Flow Instability Indexes
  ********************************
  All links are stable.
  
  
  *************************
  Routing Time Step Summary
  *************************
  Minimum Time Step           :     4.50 sec
  Average Time Step           :     5.00 sec
  Maximum Time Step           :     5.00 sec
  Percent in Steady State     :     0.00
  Average Iterations per Step :     2.10
  Percent Not Converging      :     0.25
  
  
  ***************************
  Subcatchment Runoff Summary
  ***************************
  
  ------------------------------------------------------------------------------------------------------------------------------
                            Total      Total      Total      Total     Imperv       Perv      Total       Total     Peak  Runoff
                           Precip      Runon       Evap      Infil     Runoff     Runoff     Runoff      Runoff   Runoff   Coeff
  Subcatchment                 mm         mm         mm         mm         mm         mm         mm    10^6 ltr      CMS
  ------------------------------------------------------------------------------------------------------------------------------
  SC01                      12.67       0.00       0.00       0.00      12.50       0.00      12.50        4.12     1.07   0.986
  SC02                      10.42       0.00       0.00       0.00      10.26       0.00      10.26        2.33     0.92   0.985
  SC03                       8.59       0.00       0.00       0.00       8.50       0.00       8.50        1.53     0.66   0.989
  SC04                      10.42       0.00       0.00       0.00      10.12       0.00      10.12        0.70     0.14   0.971
  SC05                      12.67       0.00       0.00       0.00      12.48       0.00      12.48        1.95     0.47   0.985
  SC06                      11.32       0.00       0.00       0.00      10.84       0.00      10.84        3.53     0.40   0.957
  SC07                      10.42       0.00       0.00       0.00      10.12       0.00      10.12        0.48     0.10   0.971
  SC08                       8.59       0.00       0.00       0.00       8.39       0.00       8.39        2.35     0.53   0.977
  SC09                      11.32       0.00       0.00       0.00      11.00       0.00      11.00        0.76     0.11   0.972
  SC010                     12.67       0.00       0.00       0.00      12.43       0.00      12.43        1.46     0.29   0.981
  
  
  ******************
  Node Depth Summary
  ******************
  
  ---------------------------------------------------------------------------------
                                 Average  Maximum  Maximum  Time of Max    Reported
                                   Depth    Depth      HGL   Occurrence   Max Depth
  Node                 Type       Meters   Meters   Meters  days hr:min      Meters
  ---------------------------------------------------------------------------------
  J1                   JUNCTION     0.06     0.22    34.22     0  14:27        0.22
  J3                   JUNCTION     0.08     0.14    18.14     0  18:49        0.14
  CSO7                 JUNCTION     0.09     1.20    35.20     0  14:25        1.20
  J5                   JUNCTION     0.05     0.15    32.15     0  14:32        0.15
  CSO9                 JUNCTION     0.09     1.95    41.95     0  16:01        1.82
  J8                   JUNCTION     0.08     0.23    36.23     0  16:08        0.23
  CSO8                 JUNCTION     0.09     2.00    34.00     0  14:20        2.00
  J10                  JUNCTION     0.06     0.28    29.28     0  14:27        0.28
  J13                  JUNCTION     0.04     0.24    29.24     0  14:26        0.24
  J15                  JUNCTION     0.13     0.35    15.35     0  14:38        0.35
  J16                  JUNCTION     0.05     0.24    30.24     0  14:26        0.24
  CSO10                JUNCTION     0.09     1.00    31.00     0  14:26        1.00
  J12                  JUNCTION     0.33     1.00    27.00     0  18:06        1.00
  J4                   JUNCTION     0.09     1.42    34.42     0  14:29        0.76
  J6                   JUNCTION     0.05     0.07    25.07     0  16:37        0.07
  J2                   JUNCTION     0.06     0.08    25.08     0  16:48        0.08
  J19                  JUNCTION     0.12     0.17     8.17     0  14:39        0.17
  J9                   JUNCTION     0.07     0.11    29.11     0  15:20        0.11
  J14                  JUNCTION     0.08     0.15    20.15     0  18:31        0.15
  J17                  JUNCTION     0.04     0.07    20.07     0  18:00        0.07
  J7                   JUNCTION     0.06     0.20    39.20     0  16:08        0.20
  J11                  JUNCTION     0.06     0.29    31.29     0  14:27        0.29
  J18                  JUNCTION     0.04     0.16    29.16     0  14:40        0.16
  Out_to_WWTP          OUTFALL      0.11     0.17     6.17     0  17:04        0.17
  T5                   STORAGE      2.31     5.00    32.00     0  14:33        5.00
  T4                   STORAGE      2.25     5.00    32.00     0  15:39        5.00
  T6                   STORAGE      2.76     5.00    36.00     0  12:52        5.00
  T3                   STORAGE      2.14     5.00    27.00     0  18:08        5.00
  T2                   STORAGE      2.21     5.00    26.00     0  16:12        5.00
  T1                   STORAGE      2.21     5.00    15.00     0  14:38        5.00
  
  
  *******************
  Node Inflow Summary
  *******************
  
  -------------------------------------------------------------------------------------------------
                                  Maximum  Maximum                  Lateral       Total        Flow
                                  Lateral    Total  Time of Max      Inflow      Inflow     Balance
                                   Inflow   Inflow   Occurrence      Volume      Volume       Error
  Node                 Type           CMS      CMS  days hr:min    10^6 ltr    10^6 ltr     Percent
  -------------------------------------------------------------------------------------------------
  J1                   JUNCTION     0.487    0.487     0  14:26        3.04        3.04       0.014
  J3                   JUNCTION     0.000    0.190     0  17:11           0        6.77       0.532
  CSO7                 JUNCTION     0.109    0.109     0  14:26        1.05        1.05       0.031
  J5                   JUNCTION     0.148    0.218     0  14:31       0.946        1.97       0.057
  CSO9                 JUNCTION     0.115    0.115     0  14:31        1.14        1.14       0.022
  J8                   JUNCTION     0.428    0.516     0  16:06        5.36         6.5       0.097
  CSO8                 JUNCTION     0.540    0.540     0  14:21         2.8         2.8      -0.045
  J10                  JUNCTION     0.673    0.925     0  14:26        2.28        5.06      -0.107
  J13                  JUNCTION     0.930    0.930     0  14:26        3.24        3.24      -0.056
  J15                  JUNCTION     0.000    1.236     0  14:27           0        14.7       0.559
  J16                  JUNCTION     1.092    1.092     0  14:26         5.2         5.2      -0.043
  CSO10                JUNCTION     0.293    0.293     0  14:26        1.73        1.73       0.010
  J12                  JUNCTION     0.000    0.949     0  14:27           0        8.08       6.956
  J4                   JUNCTION     0.000    0.085     0  14:27           0        1.03       0.090
  J6                   JUNCTION     0.000    0.028     0  15:40           0        1.08       0.351
  J2                   JUNCTION     0.000    0.039     0  14:33           0         1.9       0.242
  J19                  JUNCTION     0.000    0.271     0  14:38           0        12.4       0.081
  J9                   JUNCTION     0.000    0.075     0  12:52           0        3.02       0.129
  J14                  JUNCTION     0.000    0.124     0  18:30           0         3.8       0.187
  J17                  JUNCTION     0.000    0.033     0  16:30           0        1.04       0.341
  J7                   JUNCTION     0.000    0.115     0  14:31           0        1.14       0.220
  J11                  JUNCTION     0.000    0.484     0  14:27           0        2.79       0.228
  J18                  JUNCTION     0.000    0.202     0  14:40           0         1.7       0.075
  Out_to_WWTP          OUTFALL      0.000    0.271     0  14:39           0        12.4       0.000
  T5                   STORAGE      0.000    0.436     0  14:27           0        3.04      10.402
  T4                   STORAGE      0.000    0.209     0  14:32           0        1.97      16.611
  T6                   STORAGE      0.000    0.492     0  16:08           0        6.49      14.527
  T3                   STORAGE      0.000    0.886     0  14:29           0        7.56      20.816
  T2                   STORAGE      0.000    0.831     0  14:27           0        3.25      36.984
  T1                   STORAGE      0.000    1.098     0  14:38           0        14.6       3.191
  
  
  **********************
  Node Surcharge Summary
  **********************
  
  Surcharging occurs when water rises above the top of the highest conduit.
  ---------------------------------------------------------------------
                                               Max. Height   Min. Depth
                                   Hours       Above Crown    Below Rim
  Node                 Type      Surcharged         Meters       Meters
  ---------------------------------------------------------------------
  CSO7                 JUNCTION        0.39          0.945        0.000
  CSO9                 JUNCTION        0.49          1.636        0.046
  CSO8                 JUNCTION        0.57          1.547        0.000
  CSO10                JUNCTION        0.30          0.560        0.000
  J4                   JUNCTION        0.36          1.124        0.576
  
  
  *********************
  Node Flooding Summary
  *********************
  
  Flooding refers to all water that overflows a node, whether it ponds or not.
  --------------------------------------------------------------------------
                                                             Total   Maximum
                                 Maximum   Time of Max       Flood    Ponded
                        Hours       Rate    Occurrence      Volume     Depth
  Node                 Flooded       CMS   days hr:min    10^6 ltr    Meters
  --------------------------------------------------------------------------
  CSO7                    0.29     0.037      0  14:31       0.018     0.000
  CSO8                    0.08     0.134      0  14:20       0.010     0.000
  CSO10                   0.23     0.122      0  14:26       0.034     0.000
  T5                      1.77     0.358      0  14:36       0.568     0.000
  T4                      2.14     0.103      0  16:17       0.226     0.000
  T6                      5.42     0.417      0  16:08       2.064     0.000
  T3                      0.12     0.073      0  18:08       0.014     0.000
  T2                      1.52     0.338      0  16:12       0.402     0.000
  T1                      1.39     0.827      0  14:38       1.354     0.000
  
  
  **********************
  Storage Volume Summary
  **********************
  
  --------------------------------------------------------------------------------------------------
                         Average     Avg  Evap Exfil       Maximum     Max    Time of Max    Maximum
                          Volume    Pcnt  Pcnt  Pcnt        Volume    Pcnt     Occurrence    Outflow
  Storage Unit           1000 m3    Full  Loss  Loss       1000 m3    Full    days hr:min        CMS
  --------------------------------------------------------------------------------------------------
  T5                       0.231      46     0     0         0.500     100       0  14:33      0.039
  T4                       0.225      45     0     0         0.500     100       0  15:39      0.028
  T6                       0.331      55     0     0         0.600     100       0  12:52      0.075
  T3                       1.115      43     0     0         2.600     100       0  18:08      0.124
  T2                       0.442      44     0     0         1.000     100       0  16:12      0.033
  T1                       0.309      44     0     0         0.700     100       0  14:38      0.271
  
  
  ***********************
  Outfall Loading Summary
  ***********************
  
  -----------------------------------------------------------
                         Flow       Avg       Max       Total
                         Freq      Flow      Flow      Volume
  Outfall Node           Pcnt       CMS       CMS    10^6 ltr
  -----------------------------------------------------------
  Out_to_WWTP           99.43     0.146     0.271      12.401
  -----------------------------------------------------------
  System                99.43     0.146     0.271      12.401
  
  
  ********************
  Link Flow Summary
  ********************
  
  -----------------------------------------------------------------------------
                                 Maximum  Time of Max   Maximum    Max/    Max/
                                  |Flow|   Occurrence   |Veloc|    Full    Full
  Link                 Type          CMS  days hr:min     m/sec    Flow   Depth
  -----------------------------------------------------------------------------
  C1                   CONDUIT     0.039     0  15:21      1.14    0.01    0.11
  C6                   CONDUIT     0.071     0  14:32      1.29    1.13    0.76
  C2                   CONDUIT     0.028     0  16:36      1.02    0.03    0.17
  C9                   CONDUIT     0.098     0  16:08      1.23    0.34    0.43
  C16                  CONDUIT     0.461     0  14:28      1.69    0.04    0.14
  C3                   CONDUIT     0.124     0  18:32      1.84    0.05    0.14
  C19                  CONDUIT     0.033     0  18:00      0.68    0.01    0.21
  C11                  CONDUIT     0.188     0  18:49      1.77    0.01    0.12
  C20                  CONDUIT     0.980     0  14:27      4.33    0.03    0.14
  C22                  CONDUIT     0.202     0  14:40      1.51    0.09    0.32
  C12                  CONDUIT     0.075     0  15:20      1.11    0.01    0.28
  C17                  CONDUIT     0.873     0  14:27      3.26    0.04    0.27
  C10                  CONDUIT     0.492     0  16:08      0.94    0.05    0.58
  C13                  CONDUIT     0.886     0  14:29      0.84    0.05    0.75
  C18                  CONDUIT     0.831     0  14:27      1.01    0.03    0.56
  C23                  CONDUIT     1.098     0  14:38      0.96    0.12    0.62
  C4                   CONDUIT     0.436     0  14:27      1.13    0.11    0.61
  C7                   CONDUIT     0.209     0  14:32      0.83    0.05    0.58
  C14                  CONDUIT     0.271     0  14:39      2.08    0.02    0.09
  C5                   CONDUIT     0.085     0  14:27      1.67    1.46    1.00
  C8                   CONDUIT     0.115     0  14:31      1.73    1.45    0.81
  C15                  CONDUIT     0.484     0  14:27      3.74    1.54    0.82
  C21                  CONDUIT     0.202     0  14:40      1.90    1.16    0.69
  V4                   ORIFICE     0.028     0  15:40                      0.35
  V5                   ORIFICE     0.039     0  14:33                      1.00
  V1                   ORIFICE     0.271     0  14:38                      1.00
  V6                   ORIFICE     0.075     0  12:52                      0.43
  V3                   ORIFICE     0.124     0  18:30                      0.65
  V2                   ORIFICE     0.033     0  16:30                      0.24
  
  
  ***************************
  Flow Classification Summary
  ***************************
  
  -------------------------------------------------------------------------------------
                      Adjusted    ---------- Fraction of Time in Flow Class ---------- 
                       /Actual         Up    Down  Sub   Sup   Up    Down  Norm  Inlet 
  Conduit               Length    Dry  Dry   Dry   Crit  Crit  Crit  Crit  Ltd   Ctrl  
  -------------------------------------------------------------------------------------
  C1                      1.00   0.00  0.00  0.00  0.12  0.88  0.00  0.00  0.96  0.00
  C6                      1.00   0.00  0.00  0.00  0.03  0.97  0.00  0.00  0.00  0.00
  C2                      1.00   0.00  0.00  0.00  0.55  0.45  0.00  0.00  0.97  0.00
  C9                      1.00   0.00  0.00  0.00  1.00  0.00  0.00  0.00  1.00  0.00
  C16                     1.00   0.00  0.25  0.00  0.48  0.27  0.00  0.00  0.39  0.00
  C3                      1.00   0.00  0.00  0.00  0.03  0.96  0.00  0.00  0.59  0.00
  C19                     1.00   0.00  0.00  0.00  1.00  0.00  0.00  0.00  1.00  0.00
  C11                     1.00   0.00  0.00  0.00  0.15  0.84  0.00  0.00  1.00  0.00
  C20                     1.00   0.00  0.00  0.00  0.73  0.27  0.00  0.00  0.99  0.00
  C22                     1.00   0.00  0.00  0.00  0.90  0.10  0.00  0.00  1.00  0.00
  C12                     1.00   0.00  0.00  0.00  0.72  0.28  0.00  0.00  0.92  0.00
  C17                     1.00   0.00  0.00  0.00  0.54  0.46  0.00  0.00  0.98  0.00
  C10                     1.00   0.00  0.00  0.00  0.92  0.08  0.00  0.00  0.98  0.00
  C13                     1.00   0.00  0.00  0.00  0.80  0.20  0.00  0.00  0.57  0.00
  C18                     1.00   0.00  0.00  0.00  0.90  0.10  0.00  0.00  0.98  0.00
  C23                     1.00   0.00  0.00  0.00  0.77  0.23  0.00  0.00  0.96  0.00
  C4                      1.00   0.00  0.00  0.00  0.82  0.18  0.00  0.00  0.98  0.00
  C7                      1.00   0.00  0.00  0.00  0.92  0.08  0.00  0.00  0.97  0.00
  C14                     1.00   0.00  0.00  0.00  0.00  1.00  0.00  0.00  0.38  0.00
  C5                      1.00   0.00  0.00  0.00  0.93  0.07  0.00  0.00  0.96  0.00
  C8                      1.00   0.00  0.00  0.00  0.18  0.82  0.00  0.00  0.00  0.00
  C15                     1.00   0.25  0.00  0.00  0.00  0.75  0.00  0.00  0.00  0.00
  C21                     1.00   0.00  0.00  0.00  0.00  1.00  0.00  0.00  0.00  0.00
  
  
  *************************
  Conduit Surcharge Summary
  *************************
  
  ----------------------------------------------------------------------------
                                                           Hours        Hours 
                         --------- Hours Full --------   Above Full   Capacity
  Conduit                Both Ends  Upstream  Dnstream   Normal Flow   Limited
  ----------------------------------------------------------------------------
  C6                          0.01      0.36      0.01      0.27         0.01
  C10                         0.01      0.01     13.04      0.01         0.01
  C13                         0.01      0.01     10.23      0.01         0.01
  C18                         0.01      0.01     11.06      0.01         0.01
  C23                         0.01      0.01     12.80      0.01         0.01
  C4                          0.01      0.01     13.06      0.01         0.01
  C7                          0.01      0.01     12.59      0.01         0.01
  C5                          0.36      0.39      0.45      0.42         0.33
  C8                          0.01      0.49      0.01      0.49         0.01
  C15                         0.01      0.57      0.01      0.61         0.01
  C21                         0.01      0.30      0.01      0.28         0.01
  

  Analysis begun on:  Tue Sep 21 03:47:14 2021
  Analysis ended on:  Tue Sep 21 03:47:14 2021
  Total elapsed time: < 1 sec