
  EPA STORM WATER MANAGEMENT MODEL - VERSION 5.1 (Build 5.3.0.dev0)
  --------------------------------------------------------------

  WARNING 09: time series interval greater than recording interval for Rain Gage RG1
  WARNING 09: time series interval greater than recording interval for Rain Gage RG2
  WARNING 09: time series interval greater than recording interval for Rain Gage RG3
  WARNING 09: time series interval greater than recording interval for Rain Gage RG4
  
  *********************************************************
  NOTE: The summary statistics displayed in this report are
  based on results found at every computational time step,  
  not just on results from each reporting time step.
  *********************************************************
  
  ****************
  Analysis Options
  ****************
  Flow Units ............... CMS
  Process Models:
    Rainfall/Runoff ........ YES
    RDII ................... NO
    Snowmelt ............... NO
    Groundwater ............ NO
    Flow Routing ........... YES
    Ponding Allowed ........ YES
    Water Quality .......... NO
  Infiltration Method ...... HORTON
  Flow Routing Method ...... DYNWAVE
  Surcharge Method ......... EXTRAN
  Starting Date ............ 08/28/2015 00:00:00
  Ending Date .............. 08/28/2015 23:40:00
  Antecedent Dry Days ...... 0.0
  Report Time Step ......... 00:01:00
  Wet Time Step ............ 00:01:00
  Dry Time Step ............ 00:01:00
  Routing Time Step ........ 5.00 sec
  Variable Time Step ....... YES
  Maximum Trials ........... 8
  Number of Threads ........ 1
  Head Tolerance ........... 0.001500 m
  
  
  **************************        Volume         Depth
  Runoff Quantity Continuity     hectare-m            mm
  **************************     ---------       -------
  Total Precipitation ......         1.805        10.016
  Evaporation Loss .........         0.000         0.000
  Infiltration Loss ........         0.000         0.000
  Surface Runoff ...........         1.785         9.907
  Final Storage ............         0.023         0.127
  Continuity Error (%) .....        -0.172
  
  
  **************************        Volume        Volume
  Flow Routing Continuity        hectare-m      10^6 ltr
  **************************     ---------     ---------
  Dry Weather Inflow .......         0.758         7.576
  Wet Weather Inflow .......         1.785        17.852
  Groundwater Inflow .......         0.000         0.000
  RDII Inflow ..............         0.000         0.000
  External Inflow ..........         0.000         0.000
  External Outflow .........         1.422        14.223
  Flooding Loss ............         0.217         2.174
  Evaporation Loss .........         0.000         0.000
  Exfiltration Loss ........         0.000         0.000
  Initial Stored Volume ....         0.000         0.000
  Final Stored Volume ......         0.724         7.241
  Continuity Error (%) .....         7.040
  
  
  *************************
  Highest Continuity Errors
  *************************
  Node T2 (27.72%)
  Node T4 (14.97%)
  Node T3 (14.24%)
  Node T6 (9.81%)
  Node J12 (6.78%)
  
  
  ***************************
  Time-Step Critical Elements
  ***************************
  None
  
  
  ********************************
  Highest Flow Instability Indexes
  ********************************
  All links are stable.
  
  
  *************************
  Routing Time Step Summary
  *************************
  Minimum Time Step           :     4.50 sec
  Average Time Step           :     5.00 sec
  Maximum Time Step           :     5.00 sec
  Percent in Steady State     :     0.00
  Average Iterations per Step :     2.10
  Percent Not Converging      :     0.25
  
  
  ***************************
  Subcatchment Runoff Summary
  ***************************
  
  ------------------------------------------------------------------------------------------------------------------------------
                            Total      Total      Total      Total     Imperv       Perv      Total       Total     Peak  Runoff
                           Precip      Runon       Evap      Infil     Runoff     Runoff     Runoff      Runoff   Runoff   Coeff
  Subcatchment                 mm         mm         mm         mm         mm         mm         mm    10^6 ltr      CMS
  ------------------------------------------------------------------------------------------------------------------------------
  SC01                       8.35       0.00       0.00       0.00       8.29       0.00       8.29        2.74     1.09   0.993
  SC02                       9.96       0.00       0.00       0.00       9.89       0.00       9.89        2.25     0.85   0.993
  SC03                      10.62       0.00       0.00       0.00      10.59       0.00      10.59        1.91     0.90   0.997
  SC04                       9.96       0.00       0.00       0.00       9.77       0.00       9.77        0.67     0.14   0.981
  SC05                       8.35       0.00       0.00       0.00       8.29       0.00       8.29        1.29     0.50   0.993
  SC06                      11.91       0.00       0.00       0.00      11.67       0.00      11.67        3.80     0.58   0.980
  SC07                       9.96       0.00       0.00       0.00       9.77       0.00       9.77        0.46     0.10   0.981
  SC08                      10.62       0.00       0.00       0.00      10.51       0.00      10.51        2.94     0.74   0.990
  SC09                      11.91       0.00       0.00       0.00      11.78       0.00      11.78        0.81     0.16   0.989
  SC010                      8.35       0.00       0.00       0.00       8.27       0.00       8.27        0.97     0.34   0.991
  
  
  ******************
  Node Depth Summary
  ******************
  
  ---------------------------------------------------------------------------------
                                 Average  Maximum  Maximum  Time of Max    Reported
                                   Depth    Depth      HGL   Occurrence   Max Depth
  Node                 Type       Meters   Meters   Meters  days hr:min      Meters
  ---------------------------------------------------------------------------------
  J1                   JUNCTION     0.05     0.23    34.23     0  00:31        0.22
  J3                   JUNCTION     0.10     0.13    18.13     0  21:39        0.13
  CSO7                 JUNCTION     0.09     1.20    35.20     0  18:51        1.20
  J5                   JUNCTION     0.05     0.15    32.15     0  18:57        0.15
  CSO9                 JUNCTION     0.11     2.00    42.00     0  00:20        2.00
  J8                   JUNCTION     0.09     0.27    36.27     0  00:37        0.27
  CSO8                 JUNCTION     0.11     2.00    34.00     0  00:16        2.00
  J10                  JUNCTION     0.07     0.30    29.30     0  18:58        0.30
  J13                  JUNCTION     0.05     0.23    29.23     0  18:52        0.23
  J15                  JUNCTION     0.14     0.36    15.36     0  00:33        0.35
  J16                  JUNCTION     0.04     0.24    30.24     0  00:31        0.24
  CSO10                JUNCTION     0.08     1.00    31.00     0  00:21        1.00
  J12                  JUNCTION     0.31     1.03    27.03     0  19:17        1.03
  J4                   JUNCTION     0.10     1.43    34.43     0  18:55        0.75
  J6                   JUNCTION     0.05     0.07    25.07     0  20:18        0.07
  J2                   JUNCTION     0.06     0.07    25.07     0  01:28        0.07
  J19                  JUNCTION     0.13     0.17     8.17     0  00:55        0.17
  J9                   JUNCTION     0.09     0.11    29.11     0  02:37        0.11
  J14                  JUNCTION     0.10     0.15    20.15     0  21:21        0.15
  J17                  JUNCTION     0.05     0.08    20.08     0  20:13        0.08
  J7                   JUNCTION     0.07     0.23    39.23     0  00:38        0.23
  J11                  JUNCTION     0.07     0.29    31.29     0  19:03        0.29
  J18                  JUNCTION     0.04     0.16    29.16     0  00:42        0.16
  Out_to_WWTP          OUTFALL      0.13     0.17     6.17     0  01:26        0.17
  T5                   STORAGE      2.20     3.71    30.71     0  01:26        3.71
  T4                   STORAGE      2.19     4.66    31.66     0  20:44        4.66
  T6                   STORAGE      4.38     5.00    36.00     0  01:09        5.00
  T3                   STORAGE      3.17     5.00    27.00     0  19:15        5.00
  T2                   STORAGE      2.47     5.00    26.00     0  19:39        5.00
  T1                   STORAGE      2.04     5.00    15.00     0  00:54        5.00
  
  
  *******************
  Node Inflow Summary
  *******************
  
  -------------------------------------------------------------------------------------------------
                                  Maximum  Maximum                  Lateral       Total        Flow
                                  Lateral    Total  Time of Max      Inflow      Inflow     Balance
                                   Inflow   Inflow   Occurrence      Volume      Volume       Error
  Node                 Type           CMS      CMS  days hr:min    10^6 ltr    10^6 ltr     Percent
  -------------------------------------------------------------------------------------------------
  J1                   JUNCTION     0.498    0.498     0  00:31        2.39        2.39      -0.170
  J3                   JUNCTION     0.000    0.172     0  21:35           0        8.66       0.308
  CSO7                 JUNCTION     0.105    0.105     0  18:56        1.03        1.03       0.013
  J5                   JUNCTION     0.144    0.215     0  18:56       0.922        1.94      -0.091
  CSO9                 JUNCTION     0.163    0.163     0  00:26        1.19        1.19      -0.038
  J8                   JUNCTION     0.580    0.705     0  00:36        5.63        6.81      -0.093
  CSO8                 JUNCTION     0.741    0.741     0  18:56        3.39        3.39      -0.032
  J10                  JUNCTION     0.913    1.115     0  18:56        2.66           6      -0.181
  J13                  JUNCTION     0.861    0.861     0  18:51        3.16        3.16      -0.346
  J15                  JUNCTION     0.000    1.258     0  00:31           0          15       0.366
  J16                  JUNCTION     1.090    1.090     0  00:31        3.81        3.81      -0.147
  CSO10                JUNCTION     0.338    0.338     0  00:31        1.24        1.24      -0.021
  J12                  JUNCTION     0.000    1.030     0  18:59           0        10.3       7.268
  J4                   JUNCTION     0.000    0.085     0  18:53           0        1.02       0.095
  J6                   JUNCTION     0.000    0.027     0  20:50           0        1.26       0.300
  J2                   JUNCTION     0.000    0.034     0  01:26           0        2.18       0.124
  J19                  JUNCTION     0.000    0.271     0  00:54           0        14.2       0.058
  J9                   JUNCTION     0.000    0.075     0  01:40           0         4.3       0.161
  J14                  JUNCTION     0.000    0.124     0  19:20           0        5.23       0.073
  J17                  JUNCTION     0.000    0.033     0  20:00           0        1.34       0.504
  J7                   JUNCTION     0.000    0.127     0  00:38           0        1.18       0.118
  J11                  JUNCTION     0.000    0.485     0  19:02           0        3.34       0.161
  J18                  JUNCTION     0.000    0.202     0  00:42           0        1.19      -0.063
  Out_to_WWTP          OUTFALL      0.000    0.271     0  00:56           0        14.2       0.000
  T5                   STORAGE      0.000    0.461     0  00:31           0        2.39       4.804
  T4                   STORAGE      0.000    0.205     0  18:57           0        1.94      17.609
  T6                   STORAGE      0.000    0.671     0  00:37           0        6.82      10.871
  T3                   STORAGE      0.000    0.674     0  00:25           0         9.6      16.602
  T2                   STORAGE      0.000    0.755     0  18:52           0        3.17      38.354
  T1                   STORAGE      0.000    1.114     0  00:33           0        14.9       2.007
  
  
  **********************
  Node Surcharge Summary
  **********************
  
  Surcharging occurs when water rises above the top of the highest conduit.
  ---------------------------------------------------------------------
                                               Max. Height   Min. Depth
                                   Hours       Above Crown    Below Rim
  Node                 Type      Surcharged         Meters       Meters
  ---------------------------------------------------------------------
  CSO7                 JUNCTION        0.32          0.945        0.000
  CSO9                 JUNCTION        0.67          1.682        0.000
  CSO8                 JUNCTION        0.43          1.547        0.000
  CSO10                JUNCTION        0.40          0.560        0.000
  J4                   JUNCTION        0.27          1.133        0.567
  
  
  *********************
  Node Flooding Summary
  *********************
  
  Flooding refers to all water that overflows a node, whether it ponds or not.
  --------------------------------------------------------------------------
                                                             Total   Maximum
                                 Maximum   Time of Max       Flood    Ponded
                        Hours       Rate    Occurrence      Volume     Depth
  Node                 Flooded       CMS   days hr:min    10^6 ltr    Meters
  --------------------------------------------------------------------------
  CSO7                    0.22     0.039      0  18:51       0.011     0.000
  CSO9                    0.23     0.038      0  00:26       0.012     0.000
  CSO8                    0.12     0.284      0  18:56       0.049     0.000
  CSO10                   0.33     0.135      0  00:31       0.057     0.000
  T6                      4.88     0.309      0  19:00       1.382     0.000
  T3                      1.28     0.523      0  19:19       0.460     0.000
  T2                      0.35     0.041      0  19:39       0.030     0.000
  T1                      0.40     0.289      0  00:54       0.174     0.000
  
  
  **********************
  Storage Volume Summary
  **********************
  
  --------------------------------------------------------------------------------------------------
                         Average     Avg  Evap Exfil       Maximum     Max    Time of Max    Maximum
                          Volume    Pcnt  Pcnt  Pcnt        Volume    Pcnt     Occurrence    Outflow
  Storage Unit           1000 m3    Full  Loss  Loss       1000 m3    Full    days hr:min        CMS
  --------------------------------------------------------------------------------------------------
  T5                       0.220      44     0     0         0.371      74       0  01:26      0.034
  T4                       0.219      44     0     0         0.466      93       0  20:44      0.027
  T6                       0.526      88     0     0         0.600     100       0  01:09      0.075
  T3                       1.647      63     0     0         2.600     100       0  19:15      0.124
  T2                       0.494      49     0     0         1.000     100       0  19:39      0.033
  T1                       0.286      41     0     0         0.700     100       0  00:54      0.271
  
  
  ***********************
  Outfall Loading Summary
  ***********************
  
  -----------------------------------------------------------
                         Flow       Avg       Max       Total
                         Freq      Flow      Flow      Volume
  Outfall Node           Pcnt       CMS       CMS    10^6 ltr
  -----------------------------------------------------------
  Out_to_WWTP           99.74     0.167     0.271      14.222
  -----------------------------------------------------------
  System                99.74     0.167     0.271      14.222
  
  
  ********************
  Link Flow Summary
  ********************
  
  -----------------------------------------------------------------------------
                                 Maximum  Time of Max   Maximum    Max/    Max/
                                  |Flow|   Occurrence   |Veloc|    Full    Full
  Link                 Type          CMS  days hr:min     m/sec    Flow   Depth
  -----------------------------------------------------------------------------
  C1                   CONDUIT     0.034     0  01:28      1.09    0.01    0.10
  C6                   CONDUIT     0.071     0  18:57      1.29    1.13    0.75
  C2                   CONDUIT     0.027     0  20:18      1.03    0.03    0.17
  C9                   CONDUIT     0.126     0  00:38      1.33    0.43    0.50
  C16                  CONDUIT     0.476     0  19:03      1.72    0.05    0.15
  C3                   CONDUIT     0.124     0  21:22      1.89    0.05    0.14
  C19                  CONDUIT     0.033     0  20:13      0.77    0.01    0.20
  C11                  CONDUIT     0.172     0  21:39      1.75    0.01    0.11
  C20                  CONDUIT     1.000     0  00:31      3.63    0.03    0.15
  C22                  CONDUIT     0.202     0  00:42      1.61    0.09    0.32
  C12                  CONDUIT     0.075     0  02:02      1.15    0.01    0.29
  C17                  CONDUIT     0.956     0  18:59      2.90    0.05    0.30
  C10                  CONDUIT     0.671     0  00:37      1.79    0.07    0.59
  C13                  CONDUIT     0.674     0  00:25      2.82    0.04    0.76
  C18                  CONDUIT     0.755     0  18:52      2.75    0.03    0.56
  C23                  CONDUIT     1.114     0  00:33      2.29    0.12    0.62
  C4                   CONDUIT     0.461     0  00:31      2.49    0.11    0.61
  C7                   CONDUIT     0.205     0  18:57      1.85    0.05    0.58
  C14                  CONDUIT     0.271     0  00:56      2.08    0.02    0.09
  C5                   CONDUIT     0.085     0  18:53      1.72    1.45    1.00
  C8                   CONDUIT     0.127     0  00:38      1.89    1.60    0.86
  C15                  CONDUIT     0.485     0  19:02      3.68    1.54    0.82
  C21                  CONDUIT     0.202     0  00:42      1.86    1.16    0.69
  V4                   ORIFICE     0.027     0  20:50                      0.35
  V5                   ORIFICE     0.034     0  01:26                      1.00
  V1                   ORIFICE     0.271     0  00:54                      1.00
  V6                   ORIFICE     0.075     0  01:40                      0.43
  V3                   ORIFICE     0.124     0  19:20                      0.65
  V2                   ORIFICE     0.033     0  20:00                      0.24
  
  
  ***************************
  Flow Classification Summary
  ***************************
  
  -------------------------------------------------------------------------------------
                      Adjusted    ---------- Fraction of Time in Flow Class ---------- 
                       /Actual         Up    Down  Sub   Sup   Up    Down  Norm  Inlet 
  Conduit               Length    Dry  Dry   Dry   Crit  Crit  Crit  Crit  Ltd   Ctrl  
  -------------------------------------------------------------------------------------
  C1                      1.00   0.00  0.00  0.00  0.28  0.72  0.00  0.00  0.98  0.00
  C6                      1.00   0.00  0.00  0.00  0.03  0.97  0.00  0.00  0.00  0.00
  C2                      1.00   0.00  0.00  0.00  0.61  0.39  0.00  0.00  0.99  0.00
  C9                      1.00   0.00  0.00  0.00  1.00  0.00  0.00  0.00  1.00  0.00
  C16                     1.00   0.00  0.00  0.00  0.62  0.38  0.00  0.00  0.52  0.00
  C3                      1.00   0.00  0.00  0.00  0.01  0.99  0.00  0.00  0.46  0.00
  C19                     1.00   0.00  0.00  0.00  1.00  0.00  0.00  0.00  1.00  0.00
  C11                     1.00   0.00  0.00  0.00  0.08  0.92  0.00  0.00  1.00  0.00
  C20                     1.00   0.00  0.00  0.00  0.90  0.10  0.00  0.00  0.99  0.00
  C22                     1.00   0.00  0.00  0.00  0.94  0.06  0.00  0.00  1.00  0.00
  C12                     1.00   0.00  0.00  0.00  0.54  0.46  0.00  0.00  0.86  0.00
  C17                     1.00   0.00  0.00  0.00  0.62  0.38  0.00  0.00  0.98  0.00
  C10                     1.00   0.00  0.00  0.00  0.98  0.02  0.00  0.00  0.99  0.00
  C13                     1.00   0.00  0.00  0.00  0.98  0.02  0.00  0.00  0.69  0.00
  C18                     1.00   0.00  0.00  0.00  0.99  0.01  0.00  0.00  0.99  0.00
  C23                     1.00   0.00  0.00  0.00  0.99  0.01  0.00  0.00  0.99  0.00
  C4                      1.00   0.00  0.00  0.00  0.99  0.01  0.00  0.00  0.99  0.00
  C7                      1.00   0.00  0.00  0.00  0.99  0.01  0.00  0.00  0.99  0.00
  C14                     1.00   0.00  0.00  0.00  0.00  1.00  0.00  0.00  0.68  0.00
  C5                      1.00   0.00  0.00  0.00  0.93  0.07  0.00  0.00  0.97  0.00
  C8                      1.00   0.00  0.00  0.00  0.12  0.88  0.00  0.00  0.00  0.00
  C15                     1.00   0.00  0.00  0.00  0.00  1.00  0.00  0.00  0.00  0.00
  C21                     1.00   0.00  0.00  0.00  0.00  1.00  0.00  0.00  0.00  0.00
  
  
  *************************
  Conduit Surcharge Summary
  *************************
  
  ----------------------------------------------------------------------------
                                                           Hours        Hours 
                         --------- Hours Full --------   Above Full   Capacity
  Conduit                Both Ends  Upstream  Dnstream   Normal Flow   Limited
  ----------------------------------------------------------------------------
  C6                          0.01      0.27      0.01      0.18         0.01
  C10                         0.01      0.01     23.11      0.01         0.01
  C13                         0.01      0.01     20.92      0.01         0.01
  C18                         0.01      0.01     10.57      0.01         0.01
  C23                         0.01      0.01     17.18      0.01         0.01
  C4                          0.01      0.01     23.16      0.01         0.01
  C7                          0.01      0.01     22.94      0.01         0.01
  C5                          0.27      0.32      0.36      0.30         0.24
  C8                          0.01      0.67      0.01      0.66         0.01
  C15                         0.01      0.43      0.01      0.52         0.01
  C21                         0.01      0.40      0.01      0.39         0.01
  

  Analysis begun on:  Tue Sep 21 04:08:48 2021
  Analysis ended on:  Tue Sep 21 04:08:49 2021
  Total elapsed time: 00:00:01