
  EPA STORM WATER MANAGEMENT MODEL - VERSION 5.1 (Build 5.3.0.dev0)
  --------------------------------------------------------------

  
  *********************************************************
  NOTE: The summary statistics displayed in this report are
  based on results found at every computational time step,  
  not just on results from each reporting time step.
  *********************************************************
  
  ****************
  Analysis Options
  ****************
  Flow Units ............... CMS
  Process Models:
    Rainfall/Runoff ........ YES
    RDII ................... NO
    Snowmelt ............... NO
    Groundwater ............ NO
    Flow Routing ........... YES
    Ponding Allowed ........ YES
    Water Quality .......... NO
  Infiltration Method ...... HORTON
  Flow Routing Method ...... DYNWAVE
  Surcharge Method ......... EXTRAN
  Starting Date ............ 08/28/2015 08:00:00
  Ending Date .............. 08/28/2015 15:50:00
  Antecedent Dry Days ...... 0.0
  Report Time Step ......... 00:01:00
  Wet Time Step ............ 00:01:00
  Dry Time Step ............ 00:01:00
  Routing Time Step ........ 5.00 sec
  Variable Time Step ....... YES
  Maximum Trials ........... 8
  Number of Threads ........ 1
  Head Tolerance ........... 0.001500 m
  
  
  **************************        Volume         Depth
  Runoff Quantity Continuity     hectare-m            mm
  **************************     ---------       -------
  Total Precipitation ......         3.007        16.689
  Evaporation Loss .........         0.000         0.000
  Infiltration Loss ........         0.000         0.000
  Surface Runoff ...........         2.983        16.556
  Final Storage ............         0.024         0.135
  Continuity Error (%) .....        -0.007
  
  
  **************************        Volume        Volume
  Flow Routing Continuity        hectare-m      10^6 ltr
  **************************     ---------     ---------
  Dry Weather Inflow .......         0.396         3.955
  Wet Weather Inflow .......         2.983        29.833
  Groundwater Inflow .......         0.000         0.000
  RDII Inflow ..............         0.000         0.000
  External Inflow ..........         0.000         0.000
  External Outflow .........         0.593         5.931
  Flooding Loss ............         1.711        17.107
  Evaporation Loss .........         0.000         0.000
  Exfiltration Loss ........         0.000         0.000
  Initial Stored Volume ....         0.000         0.000
  Final Stored Volume ......         0.808         8.077
  Continuity Error (%) .....         7.914
  
  
  *************************
  Highest Continuity Errors
  *************************
  Node T2 (21.04%)
  Node T3 (16.94%)
  Node T4 (16.51%)
  Node T5 (12.74%)
  Node T6 (10.85%)
  
  
  ***************************
  Time-Step Critical Elements
  ***************************
  None
  
  
  ********************************
  Highest Flow Instability Indexes
  ********************************
  All links are stable.
  
  
  *************************
  Routing Time Step Summary
  *************************
  Minimum Time Step           :     4.50 sec
  Average Time Step           :     5.00 sec
  Maximum Time Step           :     5.00 sec
  Percent in Steady State     :     0.00
  Average Iterations per Step :     2.20
  Percent Not Converging      :     0.60
  
  
  ***************************
  Subcatchment Runoff Summary
  ***************************
  
  ------------------------------------------------------------------------------------------------------------------------------
                            Total      Total      Total      Total     Imperv       Perv      Total       Total     Peak  Runoff
                           Precip      Runon       Evap      Infil     Runoff     Runoff     Runoff      Runoff   Runoff   Coeff
  Subcatchment                 mm         mm         mm         mm         mm         mm         mm    10^6 ltr      CMS
  ------------------------------------------------------------------------------------------------------------------------------
  SC01                      16.69       0.00       0.00       0.00      16.60       0.00      16.60        5.48     1.51   0.995
  SC02                      16.69       0.00       0.00       0.00      16.60       0.00      16.60        3.78     1.03   0.994
  SC03                      16.69       0.00       0.00       0.00      16.62       0.00      16.62        2.99     0.86   0.996
  SC04                      16.69       0.00       0.00       0.00      16.49       0.00      16.49        1.14     0.28   0.988
  SC05                      16.69       0.00       0.00       0.00      16.60       0.00      16.60        2.59     0.70   0.994
  SC06                      16.69       0.00       0.00       0.00      16.43       0.00      16.43        5.35     1.25   0.984
  SC07                      16.69       0.00       0.00       0.00      16.49       0.00      16.49        0.78     0.19   0.988
  SC08                      16.69       0.00       0.00       0.00      16.57       0.00      16.57        4.64     1.21   0.993
  SC09                      16.69       0.00       0.00       0.00      16.54       0.00      16.54        1.14     0.29   0.991
  SC010                     16.69       0.00       0.00       0.00      16.57       0.00      16.57        1.95     0.51   0.993
  
  
  ******************
  Node Depth Summary
  ******************
  
  ---------------------------------------------------------------------------------
                                 Average  Maximum  Maximum  Time of Max    Reported
                                   Depth    Depth      HGL   Occurrence   Max Depth
  Node                 Type       Meters   Meters   Meters  days hr:min      Meters
  ---------------------------------------------------------------------------------
  J1                   JUNCTION     0.09     0.28    34.28     0  02:42        0.28
  J3                   JUNCTION     0.11     0.14    18.14     0  03:44        0.14
  CSO7                 JUNCTION     0.29     1.20    35.20     0  01:57        1.20
  J5                   JUNCTION     0.08     0.20    32.20     0  02:45        0.20
  CSO9                 JUNCTION     0.41     2.00    42.00     0  02:08        2.00
  J8                   JUNCTION     0.14     0.39    36.39     0  02:46        0.39
  CSO8                 JUNCTION     0.43     2.00    34.00     0  02:05        2.00
  J10                  JUNCTION     0.12     0.35    29.35     0  02:41        0.35
  J13                  JUNCTION     0.08     0.27    29.27     0  02:42        0.27
  J15                  JUNCTION     0.20     0.47    15.47     0  02:44        0.47
  J16                  JUNCTION     0.09     0.30    30.30     0  02:42        0.30
  CSO10                JUNCTION     0.24     1.00    31.00     0  02:04        1.00
  J12                  JUNCTION     0.69     1.12    27.12     0  02:56        1.12
  J4                   JUNCTION     0.22     1.22    34.22     0  01:57        0.76
  J6                   JUNCTION     0.06     0.07    25.07     0  03:59        0.07
  J2                   JUNCTION     0.07     0.08    25.08     0  03:15        0.08
  J19                  JUNCTION     0.14     0.17     8.17     0  02:13        0.17
  J9                   JUNCTION     0.09     0.11    29.11     0  04:02        0.11
  J14                  JUNCTION     0.11     0.15    20.15     0  05:11        0.15
  J17                  JUNCTION     0.06     0.08    20.08     0  03:41        0.08
  J7                   JUNCTION     0.10     0.23    39.23     0  03:08        0.23
  J11                  JUNCTION     0.12     0.30    31.30     0  03:08        0.30
  J18                  JUNCTION     0.07     0.16    29.16     0  02:40        0.16
  Out_to_WWTP          OUTFALL      0.14     0.17     6.17     0  02:12        0.17
  T5                   STORAGE      3.60     5.00    32.00     0  02:26        5.00
  T4                   STORAGE      3.58     5.00    32.00     0  02:44        5.00
  T6                   STORAGE      3.75     5.00    36.00     0  02:18        5.00
  T3                   STORAGE      3.59     5.00    27.00     0  02:55        5.00
  T2                   STORAGE      3.64     5.00    26.00     0  02:37        5.00
  T1                   STORAGE      3.63     5.00    15.00     0  02:12        5.00
  
  
  *******************
  Node Inflow Summary
  *******************
  
  -------------------------------------------------------------------------------------------------
                                  Maximum  Maximum                  Lateral       Total        Flow
                                  Lateral    Total  Time of Max      Inflow      Inflow     Balance
                                   Inflow   Inflow   Occurrence      Volume      Volume       Error
  Node                 Type           CMS      CMS  days hr:min    10^6 ltr    10^6 ltr     Percent
  -------------------------------------------------------------------------------------------------
  J1                   JUNCTION     0.723    0.723     0  02:42        3.15        3.15       0.005
  J3                   JUNCTION     0.000    0.191     0  04:22           0        3.73       1.033
  CSO7                 JUNCTION     0.200    0.200     0  02:44        1.07        1.07       0.044
  J5                   JUNCTION     0.280    0.353     0  02:44        1.27        2.05       0.067
  CSO9                 JUNCTION     0.297    0.297     0  02:43        1.34        1.34       0.035
  J8                   JUNCTION     1.280    1.407     0  02:45        6.29        7.31       0.063
  CSO8                 JUNCTION     1.223    1.223     0  02:42        4.93        4.93       0.011
  J10                  JUNCTION     0.871    1.356     0  02:41        3.38        6.95      -0.063
  J13                  JUNCTION     1.043    1.043     0  02:42        4.24        4.24      -0.123
  J15                  JUNCTION     0.000    1.921     0  02:42           0        11.9       0.720
  J16                  JUNCTION     1.525    1.525     0  02:41        6.03        6.03      -0.020
  CSO10                JUNCTION     0.517    0.517     0  02:42        2.09        2.09       0.018
  J12                  JUNCTION     0.000    1.426     0  02:41           0        8.54       8.162
  J4                   JUNCTION     0.000    0.073     0  02:45           0       0.785       0.425
  J6                   JUNCTION     0.000    0.028     0  03:00           0       0.546       0.742
  J2                   JUNCTION     0.000    0.039     0  02:26           0       0.871       0.585
  J19                  JUNCTION     0.000    0.271     0  02:12           0        5.94       0.200
  J9                   JUNCTION     0.000    0.075     0  02:18           0        1.59       0.376
  J14                  JUNCTION     0.000    0.124     0  03:23           0        2.33       0.315
  J17                  JUNCTION     0.000    0.033     0  02:37           0       0.677       0.990
  J7                   JUNCTION     0.000    0.127     0  03:08           0        1.03       0.301
  J11                  JUNCTION     0.000    0.486     0  03:07           0        3.58       0.186
  J18                  JUNCTION     0.000    0.202     0  02:40           0        1.51       0.047
  Out_to_WWTP          OUTFALL      0.000    0.271     0  02:14           0        5.93       0.000
  T5                   STORAGE      0.000    0.723     0  02:42           0        3.15      14.595
  T4                   STORAGE      0.000    0.353     0  02:45           0        2.05      19.773
  T6                   STORAGE      0.000    1.406     0  02:46           0        7.31      12.168
  T3                   STORAGE      0.000    1.905     0  02:59           0         7.9      20.393
  T2                   STORAGE      0.000    1.043     0  02:42           0        4.25      26.641
  T1                   STORAGE      0.000    1.891     0  02:45           0        11.8       6.313
  
  
  **********************
  Node Surcharge Summary
  **********************
  
  Surcharging occurs when water rises above the top of the highest conduit.
  ---------------------------------------------------------------------
                                               Max. Height   Min. Depth
                                   Hours       Above Crown    Below Rim
  Node                 Type      Surcharged         Meters       Meters
  ---------------------------------------------------------------------
  CSO7                 JUNCTION        1.52          0.945        0.000
  CSO9                 JUNCTION        1.54          1.682        0.000
  CSO8                 JUNCTION        1.50          1.547        0.000
  CSO10                JUNCTION        1.22          0.560        0.000
  J4                   JUNCTION        1.48          0.918        0.782
  
  
  *********************
  Node Flooding Summary
  *********************
  
  Flooding refers to all water that overflows a node, whether it ponds or not.
  --------------------------------------------------------------------------
                                                             Total   Maximum
                                 Maximum   Time of Max       Flood    Ponded
                        Hours       Rate    Occurrence      Volume     Depth
  Node                 Flooded       CMS   days hr:min    10^6 ltr    Meters
  --------------------------------------------------------------------------
  CSO7                    1.33     0.127      0  02:44       0.288     0.000
  CSO9                    1.01     0.170      0  02:43       0.311     0.000
  CSO8                    1.05     0.737      0  02:42       1.354     0.000
  CSO10                   1.07     0.315      0  02:42       0.581     0.000
  T5                      1.68     0.684      0  02:42       1.475     0.000
  T4                      2.27     0.338      0  02:45       0.698     0.000
  T6                      2.98     1.331      0  02:46       4.361     0.000
  T3                      1.68     1.843      0  02:59       1.719     0.000
  T2                      2.33     1.010      0  02:42       1.739     0.000
  T1                      1.84     1.620      0  02:45       4.582     0.000
  
  
  **********************
  Storage Volume Summary
  **********************
  
  --------------------------------------------------------------------------------------------------
                         Average     Avg  Evap Exfil       Maximum     Max    Time of Max    Maximum
                          Volume    Pcnt  Pcnt  Pcnt        Volume    Pcnt     Occurrence    Outflow
  Storage Unit           1000 m3    Full  Loss  Loss       1000 m3    Full    days hr:min        CMS
  --------------------------------------------------------------------------------------------------
  T5                       0.360      72     0     0         0.500     100       0  02:26      0.039
  T4                       0.358      72     0     0         0.500     100       0  02:44      0.028
  T6                       0.450      75     0     0         0.600     100       0  02:18      0.075
  T3                       1.866      72     0     0         2.600     100       0  02:55      0.129
  T2                       0.727      73     0     0         1.000     100       0  02:37      0.033
  T1                       0.509      73     0     0         0.700     100       0  02:12      0.271
  
  
  ***********************
  Outfall Loading Summary
  ***********************
  
  -----------------------------------------------------------
                         Flow       Avg       Max       Total
                         Freq      Flow      Flow      Volume
  Outfall Node           Pcnt       CMS       CMS    10^6 ltr
  -----------------------------------------------------------
  Out_to_WWTP           99.01     0.212     0.271       5.931
  -----------------------------------------------------------
  System                99.01     0.212     0.271       5.931
  
  
  ********************
  Link Flow Summary
  ********************
  
  -----------------------------------------------------------------------------
                                 Maximum  Time of Max   Maximum    Max/    Max/
                                  |Flow|   Occurrence   |Veloc|    Full    Full
  Link                 Type          CMS  days hr:min     m/sec    Flow   Depth
  -----------------------------------------------------------------------------
  C1                   CONDUIT     0.039     0  03:15      1.09    0.01    0.11
  C6                   CONDUIT     0.073     0  02:45      1.29    1.17    0.83
  C2                   CONDUIT     0.028     0  03:53      1.00    0.03    0.18
  C9                   CONDUIT     0.127     0  03:09      1.29    0.43    0.62
  C16                  CONDUIT     0.487     0  02:21      1.82    0.05    0.16
  C3                   CONDUIT     0.124     0  05:12      1.81    0.05    0.14
  C19                  CONDUIT     0.033     0  03:41      0.65    0.01    0.27
  C11                  CONDUIT     0.191     0  03:44      1.74    0.01    0.15
  C20                  CONDUIT     1.524     0  02:42      3.73    0.05    0.19
  C22                  CONDUIT     0.202     0  02:40      1.58    0.09    0.39
  C12                  CONDUIT     0.075     0  04:03      0.59    0.01    0.31
  C17                  CONDUIT     1.351     0  02:41      3.41    0.07    0.36
  C10                  CONDUIT     1.406     0  02:46      1.66    0.14    0.63
  C13                  CONDUIT     1.905     0  02:59      1.45    0.11    0.78
  C18                  CONDUIT     1.043     0  02:42      1.72    0.04    0.57
  C23                  CONDUIT     1.891     0  02:45      1.54    0.21    0.66
  C4                   CONDUIT     0.723     0  02:42      1.98    0.18    0.64
  C7                   CONDUIT     0.353     0  02:45      1.43    0.09    0.60
  C14                  CONDUIT     0.271     0  02:14      2.08    0.02    0.09
  C5                   CONDUIT     0.073     0  02:45      1.43    1.25    1.00
  C8                   CONDUIT     0.127     0  03:08      1.75    1.60    0.86
  C15                  CONDUIT     0.486     0  03:07      3.42    1.55    0.83
  C21                  CONDUIT     0.202     0  02:40      1.82    1.16    0.69
  V4                   ORIFICE     0.028     0  03:00                      0.35
  V5                   ORIFICE     0.039     0  02:26                      1.00
  V1                   ORIFICE     0.271     0  02:12                      1.00
  V6                   ORIFICE     0.075     0  02:18                      0.43
  V3                   ORIFICE     0.124     0  03:23                      0.65
  V2                   ORIFICE     0.033     0  02:37                      0.24
  
  
  ***************************
  Flow Classification Summary
  ***************************
  
  -------------------------------------------------------------------------------------
                      Adjusted    ---------- Fraction of Time in Flow Class ---------- 
                       /Actual         Up    Down  Sub   Sup   Up    Down  Norm  Inlet 
  Conduit               Length    Dry  Dry   Dry   Crit  Crit  Crit  Crit  Ltd   Ctrl  
  -------------------------------------------------------------------------------------
  C1                      1.00   0.00  0.00  0.00  0.18  0.82  0.00  0.00  0.94  0.00
  C6                      1.00   0.00  0.00  0.00  0.22  0.78  0.00  0.00  0.00  0.00
  C2                      1.00   0.00  0.00  0.00  0.55  0.45  0.00  0.00  0.95  0.00
  C9                      1.00   0.00  0.00  0.00  1.00  0.00  0.00  0.00  1.00  0.00
  C16                     1.00   0.00  0.00  0.00  0.53  0.47  0.00  0.00  0.43  0.00
  C3                      1.00   0.00  0.00  0.00  0.05  0.95  0.00  0.00  0.36  0.00
  C19                     1.00   0.00  0.00  0.00  1.00  0.00  0.00  0.00  1.00  0.00
  C11                     1.00   0.00  0.00  0.00  0.36  0.63  0.00  0.00  1.00  0.00
  C20                     1.00   0.00  0.00  0.00  0.54  0.46  0.00  0.00  0.98  0.00
  C22                     1.00   0.00  0.00  0.00  0.78  0.22  0.00  0.00  1.00  0.00
  C12                     1.00   0.00  0.00  0.00  1.00  0.00  0.00  0.00  1.00  0.00
  C17                     1.00   0.00  0.00  0.00  0.65  0.35  0.00  0.00  0.93  0.00
  C10                     1.00   0.00  0.00  0.00  0.96  0.04  0.00  0.00  0.97  0.00
  C13                     1.00   0.00  0.00  0.00  0.85  0.15  0.00  0.00  0.25  0.00
  C18                     1.00   0.00  0.00  0.00  0.94  0.06  0.00  0.00  0.97  0.00
  C23                     1.00   0.00  0.00  0.00  0.85  0.15  0.00  0.00  0.94  0.00
  C4                      1.00   0.00  0.00  0.00  0.96  0.04  0.00  0.00  0.98  0.00
  C7                      1.00   0.00  0.00  0.00  0.94  0.06  0.00  0.00  0.97  0.00
  C14                     1.00   0.00  0.00  0.00  0.00  0.99  0.00  0.00  0.37  0.00
  C5                      1.00   0.00  0.00  0.00  0.91  0.09  0.00  0.00  0.78  0.00
  C8                      1.00   0.00  0.00  0.00  0.23  0.77  0.00  0.00  0.00  0.00
  C15                     1.00   0.00  0.00  0.00  0.00  1.00  0.00  0.00  0.00  0.00
  C21                     1.00   0.00  0.00  0.00  0.00  1.00  0.00  0.00  0.00  0.00
  
  
  *************************
  Conduit Surcharge Summary
  *************************
  
  ----------------------------------------------------------------------------
                                                           Hours        Hours 
                         --------- Hours Full --------   Above Full   Capacity
  Conduit                Both Ends  Upstream  Dnstream   Normal Flow   Limited
  ----------------------------------------------------------------------------
  C6                          0.01      1.48      0.01      1.38         0.01
  C10                         0.01      0.01      6.06      0.01         0.01
  C13                         0.01      0.01      5.69      0.01         0.01
  C18                         0.01      0.01      5.77      0.01         0.01
  C23                         0.01      0.01      6.13      0.01         0.01
  C4                          0.01      0.01      6.23      0.01         0.01
  C7                          0.01      0.01      6.01      0.01         0.01
  C5                          1.52      1.52      1.62      1.58         1.48
  C8                          0.01      1.54      0.01      1.56         0.01
  C15                         0.01      1.50      0.01      1.58         0.01
  C21                         0.01      1.22      0.01      1.23         0.01
  

  Analysis begun on:  Fri Sep  3 19:32:49 2021
  Analysis ended on:  Fri Sep  3 19:32:49 2021
  Total elapsed time: < 1 sec