
  EPA STORM WATER MANAGEMENT MODEL - VERSION 5.1 (Build 5.1.013)
  --------------------------------------------------------------

  WARNING 04: minimum elevation drop used for Conduit WS02004404WS02004405
  WARNING 03: negative offset ignored for Link YS02001904YS02001907
  
  *********************************************************
  NOTE: The summary statistics displayed in this report are
  based on results found at every computational time step,  
  not just on results from each reporting time step.
  *********************************************************
  
  ****************
  Analysis Options
  ****************
  Flow Units ............... LPS
  Process Models:
    Rainfall/Runoff ........ YES
    RDII ................... NO
    Snowmelt ............... NO
    Groundwater ............ NO
    Flow Routing ........... YES
    Ponding Allowed ........ NO
    Water Quality .......... YES
  Infiltration Method ...... HORTON
  Flow Routing Method ...... DYNWAVE
  Surcharge Method ......... EXTRAN
  Starting Date ............ 08/28/2015 08:00:00
  Ending Date .............. 08/28/2015 15:50:00
  Antecedent Dry Days ...... 8.0
  Report Time Step ......... 00:01:00
  Wet Time Step ............ 00:01:00
  Dry Time Step ............ 00:01:00
  Routing Time Step ........ 5.00 sec
  Variable Time Step ....... YES
  Maximum Trials ........... 8
  Number of Threads ........ 4
  Head Tolerance ........... 0.001500 m
  
  
  **************************        Volume         Depth
  Runoff Quantity Continuity     hectare-m            mm
  **************************     ---------       -------
  Total Precipitation ......        10.887        23.836
  Evaporation Loss .........         0.000         0.000
  Infiltration Loss ........         1.411         3.089
  Surface Runoff ...........         8.292        18.155
  Final Storage ............         1.186         2.596
  Continuity Error (%) .....        -0.016
  
  
  **************************           COD            SS            TN            TP         NH4-N
  Runoff Quality Continuity             kg            kg            kg            kg            kg
  **************************    ----------    ----------    ----------    ----------    ----------
  Initial Buildup ..........     41378.656     70582.865      1804.177       168.684      1032.807
  Surface Buildup ..........        41.420        91.418         2.568         0.227         1.442
  Wet Deposition ...........         0.000         0.000         0.000         0.000         0.000
  Sweeping Removal .........         0.000         0.000         0.000         0.000         0.000
  Infiltration Loss ........       164.547       320.114         3.263         0.236         1.573
  BMP Removal ..............         0.000         0.000         0.000         0.000         0.000
  Surface Runoff ...........      9366.472     18283.758       183.722        12.955        88.132
  Remaining Buildup ........     31885.994     52064.571      1619.693       155.716       944.512
  Continuity Error (%) .....         0.007         0.008         0.004         0.003         0.003
  
  
  **************************        Volume        Volume
  Flow Routing Continuity        hectare-m      10^6 ltr
  **************************     ---------     ---------
  Dry Weather Inflow .......         0.616         6.165
  Wet Weather Inflow .......         8.290        82.901
  Groundwater Inflow .......         0.000         0.000
  RDII Inflow ..............         0.000         0.000
  External Inflow ..........         0.102         1.024
  External Outflow .........         2.427        24.267
  Flooding Loss ............         6.095        60.951
  Evaporation Loss .........         0.000         0.000
  Exfiltration Loss ........         0.000         0.000
  Initial Stored Volume ....         0.076         0.761
  Final Stored Volume ......         0.674         6.738
  Continuity Error (%) .....        -1.219
  
  
  **************************           COD            SS            TN            TP         NH4-N
  Quality Routing Continuity            kg            kg            kg            kg            kg
  **************************    ----------    ----------    ----------    ----------    ----------
  Dry Weather Inflow .......      1541.147      2465.835       147.950        18.494        92.469
  Wet Weather Inflow .......      9365.314     18281.739       183.695        12.953        88.120
  Groundwater Inflow .......         0.000         0.000         0.000         0.000         0.000
  RDII Inflow ..............         0.000         0.000         0.000         0.000         0.000
  External Inflow ..........       183.412       293.459        17.608         2.201        11.005
  External Outflow .........      3003.066      5535.600       137.555        15.027        80.092
  Flooding Loss ............      7392.859     14299.017       183.937        15.805        95.773
  Exfiltration Loss ........         0.000         0.000         0.000         0.000         0.000
  Mass Reacted .............         0.000         0.000         0.000         0.000         0.000
  Initial Stored Mass ......         0.000         0.000         0.000         0.000         0.000
  Final Stored Mass ........       569.192      1000.030        24.059         2.500        13.776
  Continuity Error (%) .....         1.125         0.981         1.060         0.937         1.019
  
  
  *************************
  Highest Continuity Errors
  *************************
  Node HS02004842 (7.73%)
  Node JK-storage (-7.38%)
  Node YS02001884 (7.14%)
  Node HS02004817 (1.58%)
  Node WS02006253 (1.50%)
  
  
  ***************************
  Time-Step Critical Elements
  ***************************
  Link WS02006252WS02006251 (45.93%)
  Link WS02006280WS02006229 (14.76%)
  Link YS02001793JiankangQianchi (8.70%)
  Link WS02004404WS02004405 (8.42%)
  Link YS02006556YS02006558 (2.81%)
  
  
  ********************************
  Highest Flow Instability Indexes
  ********************************
  Link YS02163601YS02164001 (39)
  Link WS02006113WS02006111 (37)
  Link YS02001619YS02001622 (36)
  Link YS02001629YS02163301 (36)
  Link YS02163301YS02001633 (36)
  
  
  *************************
  Routing Time Step Summary
  *************************
  Minimum Time Step           :     0.21 sec
  Average Time Step           :     1.33 sec
  Maximum Time Step           :     5.00 sec
  Percent in Steady State     :    -0.00
  Average Iterations per Step :     4.10
  Percent Not Converging      :    17.65
  
  
  ***************************
  Subcatchment Runoff Summary
  ***************************
  
  ------------------------------------------------------------------------------------------------------------------------------
                            Total      Total      Total      Total     Imperv       Perv      Total       Total     Peak  Runoff
                           Precip      Runon       Evap      Infil     Runoff     Runoff     Runoff      Runoff   Runoff   Coeff
  Subcatchment                 mm         mm         mm         mm         mm         mm         mm    10^6 ltr      LPS
  ------------------------------------------------------------------------------------------------------------------------------
  sub0                      23.84       0.00       0.00       0.77      22.12       0.90      23.02        0.02     5.06   0.966
  sub1                      23.84       0.00       0.00       1.33      21.12       1.29      22.41        0.15    33.98   0.940
  sub2                      23.84       0.00       0.00       5.60      14.93       3.22      18.15        0.17    32.49   0.761
  sub3                      23.84       0.00       0.00       5.94      14.89       2.88      17.77        0.40    70.76   0.745
  sub4                      23.84       0.00       0.00       1.46      20.95       1.16      22.11        0.46    81.55   0.928
  sub5                      23.84       0.00       0.00       0.82      22.07       0.85      22.92        0.26    59.56   0.962
  sub7                      23.84       0.00       0.00       1.03      21.63       1.11      22.74        0.08    19.22   0.954
  sub8                      23.84       0.00       0.00       1.05      21.62       1.10      22.72        0.15    35.26   0.953
  sub9                      23.84       0.00       0.00       1.05      21.62       1.10      22.71        0.11    26.33   0.953
  sub10                     23.84       0.00       0.00       0.94      21.84       0.97      22.81        0.25    58.74   0.957
  sub11                     23.84       0.00       0.00       0.92      21.86       0.99      22.85        0.27    65.28   0.959
  sub12                     23.84       0.00       0.00       1.50      20.69       1.60      22.29        0.19    51.10   0.935
  sub14                     23.84       0.00       0.00       1.05      21.61       1.09      22.71        0.22    51.81   0.953
  sub15                     23.84       0.00       0.00       4.05      16.62       3.10      19.72        0.34    74.01   0.827
  sub16                     23.84       0.00       0.00       4.23      15.93       3.63      19.56        0.20    48.29   0.821
  sub17                     23.84       0.00       0.00       4.13      16.17       3.50      19.67        0.17    39.49   0.825
  sub22                     23.84       0.00       0.00       6.08      13.55       4.17      17.72        1.12   235.47   0.743
  sub23                     23.84       0.00       0.00       5.01      14.97       3.81      18.78        0.90   197.86   0.788
  sub60                     23.84       0.00       0.00       2.13      18.82       0.73      19.55        5.93   667.30   0.820
  sub61                     23.84       0.00       0.00       3.01      18.52       1.04      19.56        6.03   717.95   0.821
  sub62                     23.84       0.00       0.00       1.25      20.31       0.65      20.96        6.44   751.14   0.880
  sub63                     23.84       0.00       0.00       5.57      16.04       1.34      17.38        5.26   638.31   0.729
  sub64                     23.84       0.00       0.00       2.78      18.11       0.79      18.90        5.75   644.78   0.793
  sub65                     23.84       0.00       0.00       2.36      18.46       0.74      19.20        5.90   658.64   0.806
  sub66                     23.84       0.00       0.00       5.92      15.37       0.99      16.36        5.02   574.80   0.686
  sub67                     23.84       0.00       0.00       1.18      20.92       0.73      21.65        6.68   814.16   0.908
  sub68                     23.84       0.00       0.00       2.35      19.35       0.99      20.34        6.25   750.28   0.853
  sub69                     23.84       0.00       0.00       2.36      19.61       1.21      20.83        4.87   655.18   0.874
  sub70                     23.84      21.26       0.00       9.95      28.09       5.22      33.30        7.62   861.91   0.738
  sub71                     23.84       0.00       0.00       1.29      20.01       0.62      20.63        4.87   557.88   0.866
  sub72                     23.84       0.00       0.00       1.26      17.48       0.41      17.88        3.64   352.81   0.750
  1                         23.84      32.43       0.00       1.37      34.56      12.51      47.07       11.06  1042.57   0.837
  2                         23.84       0.00       0.00       3.02       5.81       5.77      11.58        4.63   438.27   0.486
  
  
  ****************************
  Subcatchment Washoff Summary
  ****************************
  
  ------------------------------------------------------------------------------------------
                                 COD            SS            TN            TP         NH4-N
  Subcatchment                    kg            kg            kg            kg            kg
  ------------------------------------------------------------------------------------------
  sub0                         5.447        10.648         0.101         0.009         0.050
  sub1                        23.688        48.042         0.463         0.033         0.225
  sub2                        16.966        34.031         0.358         0.025         0.167
  sub3                        41.902        83.507         0.867         0.061         0.406
  sub4                        55.504       114.752         1.120         0.071         0.542
  sub5                        53.600       106.723         1.016         0.079         0.498
  sub7                        11.854        24.343         0.233         0.016         0.114
  sub8                        17.650        37.231         0.360         0.022         0.174
  sub9                        15.191        31.538         0.304         0.020         0.147
  sub10                       44.044        88.979         0.851         0.062         0.416
  sub11                       42.563        86.978         0.834         0.059         0.406
  sub12                       37.050        74.157         0.712         0.055         0.347
  sub14                       32.601        66.963         0.643         0.044         0.313
  sub15                       47.434        94.407         0.941         0.071         0.448
  sub16                       30.857        61.246         0.608         0.047         0.290
  sub17                       28.315        55.641         0.547         0.044         0.262
  sub22                      161.087       316.749         3.138         0.242         1.488
  sub23                       88.506       179.789         1.886         0.128         0.879
  sub60                      597.603      1177.764        11.858         0.760         5.721
  sub61                      735.660      1436.195        13.939         0.989         6.759
  sub62                      737.984      1463.007        14.530         0.959         7.028
  sub63                      558.710      1076.726        11.142         0.807         5.242
  sub64                      776.595      1477.971        14.527         1.087         6.999
  sub65                      790.463      1509.994        14.865         1.095         7.170
  sub66                      450.961       868.122         9.087         0.615         4.293
  sub67                     1073.899      2091.718        20.029         1.513         9.761
  sub68                      789.680      1552.111        15.327         1.072         7.390
  sub69                      691.072      1362.692        13.304         0.964         6.425
  sub70                     1288.651      2534.725        26.762         1.929        12.763
  sub71                      488.492       980.367         9.974         0.604         4.804
  sub72                      441.502       833.175         8.283         0.587         4.008
  1                         1052.283      2081.020        22.042         1.588        10.426
  2                          118.380       219.862         3.138         0.193         1.360
  ------------------------------------------------------------------------------------------
  System                   11346.195     22181.175       223.788        15.848       107.320
  
  
  ******************
  Node Depth Summary
  ******************
  
  ---------------------------------------------------------------------------------
                                 Average  Maximum  Maximum  Time of Max    Reported
                                   Depth    Depth      HGL   Occurrence   Max Depth
  Node                 Type       Meters   Meters   Meters  days hr:min      Meters
  ---------------------------------------------------------------------------------
  WS02001211           JUNCTION     0.79     0.86     5.70     0  01:40        0.86
  WS02001212           JUNCTION     0.50     0.59     5.65     0  01:41        0.59
  WS02001213           JUNCTION     0.75     0.87     5.63     0  01:39        0.87
  WS02003069           JUNCTION     0.56     0.74     5.32     0  01:40        0.74
  WS02003072           JUNCTION     0.62     0.78     5.15     0  01:41        0.78
  WS02003073           JUNCTION     0.38     0.49     4.56     0  01:42        0.49
  WS02003060           JUNCTION     0.49     0.65     5.58     0  01:40        0.65
  WS02003066           JUNCTION     0.27     0.40     5.95     0  01:32        0.40
  WS02003059           JUNCTION     0.80     0.92     5.61     0  01:39        0.92
  WS02003067           JUNCTION     0.64     0.85     6.17     0  01:32        0.84
  WS02004401           JUNCTION     0.82     1.57     7.57     0  01:28        1.35
  WS02004402           JUNCTION     0.84     1.53     7.49     0  01:28        1.32
  WS02004403           JUNCTION     0.85     1.43     7.36     0  01:28        1.29
  WS02004404           JUNCTION     0.92     1.45     7.30     0  01:28        1.32
  WS02004406           JUNCTION     0.91     1.76     7.59     0  01:28        1.22
  WS02004409           JUNCTION     0.62     1.05     6.82     0  01:32        1.03
  WS02004410           JUNCTION     0.63     1.02     6.74     0  01:32        1.01
  WS02004411           JUNCTION     0.64     0.98     6.66     0  01:32        0.97
  WS02004412           JUNCTION     0.64     0.94     6.58     0  01:33        0.94
  WS02004413           JUNCTION     0.79     1.05     6.52     0  01:33        1.05
  WS02004405           JUNCTION     0.91     1.41     7.26     0  01:29        1.28
  WS02006109           JUNCTION     0.96     1.88     8.50     0  01:31        1.87
  WS02006110           JUNCTION     0.90     1.82     8.40     0  01:29        1.64
  WS02006111           JUNCTION     0.34     1.29     7.99     0  01:29        1.04
  WS02006112           JUNCTION     1.03     1.86     7.74     0  01:29        1.70
  WS02006113           JUNCTION     0.46     1.35     8.24     0  01:29        1.09
  WS02006115           JUNCTION     0.73     1.49     7.63     0  01:28        1.35
  WS02006116           JUNCTION     0.81     1.57     7.61     0  01:28        1.38
  WS02006230           JUNCTION     1.03     2.65     9.39     0  01:26        2.12
  WS02006231           JUNCTION     0.77     2.24     9.36     0  01:26        1.75
  WS02006232           JUNCTION     0.92     1.95     8.99     0  01:26        1.84
  WS02006234           JUNCTION     0.87     1.96     9.12     0  01:26        1.72
  WS02006235           JUNCTION     0.92     2.00     9.16     0  01:26        1.71
  WS02006238           JUNCTION     0.94     2.04     9.18     0  01:26        1.73
  WS02006240           JUNCTION     0.86     2.01     9.31     0  01:26        1.53
  WS02006242           JUNCTION     0.93     1.55     8.82     0  01:26        1.52
  WS02006243           JUNCTION     0.82     1.48     8.90     0  01:26        1.34
  WS02006245           JUNCTION     0.80     1.56     9.04     0  01:26        1.25
  WS02006247           JUNCTION     0.81     1.47     8.97     0  01:26        1.21
  WS02006248           JUNCTION     0.76     1.10     8.69     0  01:26        1.10
  WS02006249           JUNCTION     0.77     1.09     8.69     0  01:26        1.09
  WS02006239           JUNCTION     0.91     1.92     9.13     0  01:26        1.64
  WS02006251           JUNCTION     0.78     2.21     9.88     0  01:26        1.35
  WS02006252           JUNCTION     0.51     1.50     9.74     0  01:26        0.90
  WS02006253           JUNCTION     0.81     1.82     9.47     0  01:26        1.44
  WS02006256           JUNCTION     1.74     2.35     9.28     0  00:00        2.35
  WS02004138           JUNCTION     0.19     0.20     7.45     0  00:00        0.19
  WS02004139           JUNCTION     0.73     0.80     5.71     0  01:41        0.80
  WS02004407           JUNCTION     0.27     0.43     6.74     0  01:33        0.43
  WS02006228           JUNCTION     1.00     2.08     8.73     0  01:31        2.07
  WS02006229           JUNCTION     1.00     2.17     8.86     0  01:31        2.16
  WS02006280           JUNCTION     0.09     0.48     8.75     0  01:31        0.47
  WS02006284           JUNCTION     0.39     0.71     9.11     0  01:35        0.71
  WS02006287           JUNCTION     0.12     0.46     9.42     0  01:35        0.46
  WSF200               JUNCTION     0.28     0.46     5.69     0  01:34        0.46
  HS02004901           JUNCTION     0.15     0.43    10.25     0  01:33        0.43
  HS02004881           JUNCTION     0.01     0.09     9.12     0  01:26        0.08
  HS02004876           JUNCTION     0.05     0.19     9.22     0  01:34        0.19
  HS02004870           JUNCTION     0.02     0.11     9.40     0  01:35        0.11
  HS02004862           JUNCTION     0.03     0.13     9.51     0  01:35        0.13
  HS02004856           JUNCTION     0.09     0.17     9.59     0  01:35        0.17
  HS02004852           JUNCTION     0.02     0.10     9.61     0  01:35        0.10
  HS02004848           JUNCTION     0.02     0.08     9.68     0  01:36        0.08
  HS02004842           JUNCTION     0.34     0.41     9.68     0  01:35        0.41
  HS02004837           JUNCTION     0.04     0.10     9.68     0  01:35        0.10
  HS02004830           JUNCTION     0.05     0.15     9.62     0  01:35        0.15
  HS02004824           JUNCTION     0.03     0.20     9.61     0  01:35        0.20
  HS02004817           JUNCTION     0.47     0.77     9.61     0  01:34        0.77
  HS02004807           JUNCTION     0.15     0.44     9.61     0  01:35        0.44
  HS02004802           JUNCTION     0.19     0.47     9.60     0  01:35        0.47
  HS02004799           JUNCTION     0.15     0.55     9.76     0  01:33        0.55
  HS02004792           JUNCTION     0.05     0.27     9.79     0  01:33        0.27
  HS02004788           JUNCTION     0.04     0.19    10.09     0  01:34        0.19
  HS02004785           JUNCTION     0.06     0.29    10.19     0  01:33        0.29
  HS02004777           JUNCTION     0.17     0.44    10.24     0  01:33        0.44
  HS02004770           JUNCTION     0.14     0.42    10.25     0  01:33        0.42
  HS02004480           JUNCTION     0.11     0.46     9.70     0  01:33        0.46
  HS02004479           JUNCTION     0.14     0.49     9.70     0  01:34        0.49
  HS02004478           JUNCTION     0.08     0.35     9.58     0  01:35        0.35
  YS02001745           JUNCTION     0.81     1.12     8.63     0  01:29        1.05
  YS02001748           JUNCTION     1.21     1.63     8.71     0  01:28        1.47
  YS02001751           JUNCTION     1.40     1.66     8.54     0  01:29        1.64
  YS02001754           JUNCTION     1.65     1.89     8.50     0  03:01        1.89
  YS02001762           JUNCTION     1.85     2.08     8.48     0  03:02        2.07
  YS02001765           JUNCTION     1.80     2.02     8.47     0  03:02        2.02
  YS02001767           JUNCTION     1.76     1.98     8.47     0  03:02        1.97
  YS02001770           JUNCTION     1.76     1.95     8.44     0  01:26        1.95
  YS02001774           JUNCTION     1.82     2.05     8.47     0  01:26        1.99
  YS02001779           JUNCTION     1.56     1.68     8.37     0  01:26        1.68
  YS02001882           JUNCTION     0.72     1.71     8.43     0  01:32        1.64
  YS02001884           JUNCTION     0.82     1.79     8.41     0  01:32        1.74
  YS02001759           JUNCTION     1.88     2.12     8.49     0  03:03        2.12
  YS02001887           JUNCTION     0.89     1.84     8.38     0  01:32        1.82
  YS02001890           JUNCTION     0.92     1.81     8.32     0  01:32        1.81
  YS02001898           JUNCTION     0.69     1.58     8.32     0  01:33        1.56
  YS02001901           JUNCTION     0.80     1.69     8.30     0  01:33        1.67
  YS02001904           JUNCTION     0.78     1.65     8.28     0  01:33        1.63
  YS02001907           JUNCTION     1.11     1.96     8.25     0  01:33        1.96
  YS02001910           JUNCTION     0.90     2.04     8.54     0  01:33        1.92
  YS02001915           JUNCTION     0.71     1.98     8.70     0  01:33        1.84
  YS02001918           JUNCTION     0.45     1.81     8.88     0  01:33        1.72
  YS02001619           JUNCTION     1.35     1.61     8.54     0  01:27        1.50
  YS02001629           JUNCTION     1.70     1.85     8.40     0  01:27        1.85
  YS02001641           JUNCTION     1.80     1.96     8.39     0  01:29        1.93
  YS02001644           JUNCTION     1.80     1.92     8.35     0  01:29        1.92
  YS02001652           JUNCTION     1.66     1.98     8.58     0  01:29        1.87
  YS02001655           JUNCTION     1.42     1.84     8.69     0  01:29        1.67
  YS02001920           JUNCTION     0.56     2.10     9.11     0  01:33        1.78
  YS02001923           JUNCTION     0.38     2.01     9.27     0  01:33        1.52
  YS02001926           JUNCTION     0.41     1.90     9.35     0  01:33        1.34
  YS02001929           JUNCTION     0.26     1.78     9.47     0  01:33        1.11
  YS02001658           JUNCTION     1.15     1.61     8.76     0  01:29        1.42
  YS02001661           JUNCTION     0.91     1.54     8.95     0  01:29        1.22
  YS02001664           JUNCTION     0.42     0.75     8.68     0  01:30        0.75
  YS02001622           JUNCTION     1.37     1.62     8.52     0  01:27        1.51
  YS02001633           JUNCTION     1.79     1.97     8.42     0  01:29        1.94
  YS02001649           JUNCTION     1.85     2.05     8.44     0  01:29        2.05
  YS02001757           JUNCTION     1.98     2.21     8.47     0  03:00        2.21
  YS02001895           JUNCTION     0.68     1.57     8.32     0  01:33        1.56
  YS02001625           JUNCTION     1.65     1.78     8.38     0  01:27        1.78
  YS02163301           JUNCTION     1.73     1.93     8.44     0  01:27        1.88
  YS02163601           JUNCTION     1.84     2.02     8.42     0  01:29        1.99
  YS02164001           JUNCTION     1.78     1.95     8.41     0  01:29        1.91
  YS02001647           JUNCTION     1.64     1.80     8.41     0  01:32        1.79
  YSB1154              JUNCTION     0.28     0.65     9.70     0  01:33        0.65
  YSB6556              JUNCTION     0.18     0.53     9.70     0  01:33        0.53
  YSB1174              JUNCTION     0.24     0.59     9.70     0  01:33        0.59
  YSB1171              JUNCTION     0.44     0.80     9.70     0  01:34        0.80
  YS02006553           JUNCTION     1.11     1.98     8.26     0  01:33        1.97
  YS02006561           JUNCTION     0.43     1.28     7.94     0  01:32        1.08
  YS02006556           JUNCTION     1.08     1.96     8.27     0  01:32        1.94
  YS02006558           JUNCTION     1.12     2.02     8.28     0  01:32        1.98
  YS02001783           JUNCTION     0.68     1.68     7.82     0  01:32        1.47
  YS02001784           JUNCTION     0.69     1.64     7.71     0  01:32        1.42
  YS02001786           JUNCTION     0.62     1.68     7.71     0  01:32        1.27
  YS02001788           JUNCTION     0.55     1.67     7.64     0  01:32        1.13
  YS02001790           JUNCTION     0.69     1.75     7.40     0  07:00        1.29
  YS02001791           JUNCTION     0.67     1.66     7.13     0  06:57        1.27
  YS02001793           JUNCTION     0.97     1.90     6.73     0  01:32        1.80
  WSC                  OUTFALL      0.38     0.49     1.16     0  01:42        0.49
  JK-storage           STORAGE      3.73     5.80     6.60     0  01:32        5.80
  CC-storage           STORAGE      1.21     1.48     8.48     0  03:04        1.48
  XR-storage           STORAGE      7.23     7.72     5.72     0  01:47        7.72
  
  
  *******************
  Node Inflow Summary
  *******************
  
  -------------------------------------------------------------------------------------------------
                                  Maximum  Maximum                  Lateral       Total        Flow
                                  Lateral    Total  Time of Max      Inflow      Inflow     Balance
                                   Inflow   Inflow   Occurrence      Volume      Volume       Error
  Node                 Type           LPS      LPS  days hr:min    10^6 ltr    10^6 ltr     Percent
  -------------------------------------------------------------------------------------------------
  WS02001211           JUNCTION      7.35   391.36     0  01:36       0.207        10.4       0.400
  WS02001212           JUNCTION      0.00   392.86     0  03:15           0        10.4       0.247
  WS02001213           JUNCTION      0.00   395.22     0  03:15           0        10.4       0.295
  WS02003069           JUNCTION      0.32  1386.98     0  01:40     0.00902        24.4       0.174
  WS02003072           JUNCTION      0.00  1386.33     0  01:41           0        24.3       0.200
  WS02003073           JUNCTION      1.82  1387.85     0  01:41      0.0513        24.3       0.234
  WS02003060           JUNCTION     16.53  1388.34     0  01:40       0.466        24.4       0.163
  WS02003066           JUNCTION      0.00  1004.03     0  01:33           0        13.7       0.045
  WS02003059           JUNCTION      0.00   398.00     0  03:14           0        10.3       0.415
  WS02003067           JUNCTION      0.00   997.87     0  01:33           0        13.7       0.085
  WS02004401           JUNCTION      0.00  1015.55     0  01:31           0          14       0.193
  WS02004402           JUNCTION      0.00  1015.86     0  01:31           0        13.9       0.178
  WS02004403           JUNCTION      0.00  1016.04     0  01:31           0        13.9       0.156
  WS02004404           JUNCTION      0.16  1016.95     0  01:31     0.00457        13.9       0.113
  WS02004406           JUNCTION      0.00  1017.19     0  01:31           0        13.9       0.275
  WS02004409           JUNCTION      0.00  1015.80     0  01:31           0        13.8       0.175
  WS02004410           JUNCTION      0.00  1008.62     0  01:32           0        13.8       0.189
  WS02004411           JUNCTION      0.00  1001.47     0  01:33           0        13.8       0.188
  WS02004412           JUNCTION      0.00  1002.25     0  01:32           0        13.7       0.194
  WS02004413           JUNCTION      0.00   997.42     0  01:33           0        13.7       0.276
  WS02004405           JUNCTION      0.04  1018.07     0  01:31     0.00107        13.9       0.171
  WS02006109           JUNCTION      1.23   981.62     0  01:27      0.0347        13.9       0.147
  WS02006110           JUNCTION      0.00   981.71     0  01:27           0        13.9       0.169
  WS02006111           JUNCTION      0.00   984.85     0  01:27           0        13.9       0.043
  WS02006112           JUNCTION     39.49  1015.40     0  01:31       0.169          14       0.227
  WS02006113           JUNCTION      0.00   981.72     0  01:27           0        13.9       0.105
  WS02006115           JUNCTION      0.00  1015.42     0  01:31           0          14       0.201
  WS02006116           JUNCTION      0.00  1015.34     0  01:31           0          14       0.145
  WS02006230           JUNCTION     10.28   532.65     0  07:40        0.29        9.48       0.207
  WS02006231           JUNCTION      0.00   522.67     0  07:40           0        9.19       0.149
  WS02006232           JUNCTION      0.00   522.47     0  07:45           0        9.18       0.200
  WS02006234           JUNCTION      0.00   523.12     0  05:34           0        9.17       0.127
  WS02006235           JUNCTION      0.00   523.49     0  07:40           0         9.3       0.121
  WS02006238           JUNCTION      0.00   400.73     0  06:40           0        6.02       0.149
  WS02006240           JUNCTION      0.00   411.69     0  01:26           0        6.03       0.278
  WS02006242           JUNCTION      0.00   429.62     0  01:26           0        6.04       0.324
  WS02006243           JUNCTION      0.00   465.86     0  01:25           0        6.05       0.205
  WS02006245           JUNCTION      0.00   484.36     0  01:25           0        6.06       0.231
  WS02006247           JUNCTION      0.00   487.53     0  01:26           0        6.08       0.177
  WS02006248           JUNCTION      0.00   500.78     0  01:26           0        6.18       0.164
  WS02006249           JUNCTION      0.00   642.09     0  01:27           0        8.87       0.172
  WS02006239           JUNCTION      0.00   400.61     0  06:39           0        6.02       0.216
  WS02006251           JUNCTION      0.08   631.79     0  01:27     0.00217        8.91       0.208
  WS02006252           JUNCTION      0.00   400.00     0  01:23           0        7.98       0.006
  WS02006253           JUNCTION      5.06   244.67     0  01:26      0.0186       0.941       1.520
  WS02006256           JUNCTION      0.00   983.00     0  00:00           0        14.3      -0.005
  WS02004138           JUNCTION      0.00   380.00     0  00:00           0        10.3       0.062
  WS02004139           JUNCTION      0.32   396.51     0  00:00     0.00905        10.3       0.452
  WS02004407           JUNCTION      0.00  1017.56     0  01:31           0        13.8       0.077
  WS02006228           JUNCTION      0.00   980.67     0  01:27           0        13.9       0.124
  WS02006229           JUNCTION      0.00  1028.63     0  01:29           0          14       0.118
  WS02006280           JUNCTION      0.00   934.83     0  01:35           0        4.56       0.014
  WS02006284           JUNCTION      0.10   934.75     0  01:35      0.0027        4.56       0.015
  WS02006287           JUNCTION      0.00   934.58     0  01:35           0        4.56       0.019
  WSF200               JUNCTION      0.00  1002.83     0  01:33           0        13.7       0.050
  HS02004901           JUNCTION     48.29    48.29     0  01:31       0.205       0.205       0.867
  HS02004881           JUNCTION     19.22   195.12     0  01:34      0.0766       0.897       0.066
  HS02004876           JUNCTION     33.98   176.89     0  01:34       0.149       0.821       0.067
  HS02004870           JUNCTION     35.26   143.34     0  01:34       0.145       0.672       0.017
  HS02004862           JUNCTION     32.69   109.55     0  01:35       0.175       0.527       0.033
  HS02004856           JUNCTION     26.33    76.92     0  01:35       0.109       0.354       0.407
  HS02004852           JUNCTION      0.00    51.63     0  01:36           0       0.245       0.025
  HS02004848           JUNCTION     70.76    70.76     0  01:38         0.4         0.4       0.013
  HS02004842           JUNCTION      0.00    21.86     0  01:49           0       0.168       8.372
  HS02004837           JUNCTION     65.09    82.02     0  01:35       0.431       0.586       0.139
  HS02004830           JUNCTION      0.15    82.12     0  01:35     0.00423       0.576       0.215
  HS02004824           JUNCTION     81.60   164.04     0  01:39       0.463        1.04       0.053
  HS02004817           JUNCTION      0.60   166.59     0  01:39      0.0169        1.05       1.607
  HS02004807           JUNCTION     65.28   225.36     0  01:36       0.265         1.3       0.343
  HS02004802           JUNCTION      0.00   226.39     0  01:37           0         1.3       0.298
  HS02004799           JUNCTION     51.81   605.47     0  01:33       0.216        2.82       0.117
  HS02004792           JUNCTION    235.75   554.35     0  01:33        1.13        2.61       0.015
  HS02004788           JUNCTION     75.68   319.93     0  01:33       0.386        1.48       0.026
  HS02004785           JUNCTION      0.15   244.47     0  01:33     0.00423         1.1       0.047
  HS02004777           JUNCTION      0.03   244.67     0  01:32    0.000846         1.1       0.479
  HS02004770           JUNCTION    197.86   245.55     0  01:32       0.896         1.1       0.279
  HS02004480           JUNCTION      0.00   713.03     0  01:33           0        3.27       0.024
  HS02004479           JUNCTION      0.00   107.71     0  01:33           0       0.464       0.161
  HS02004478           JUNCTION      0.00   934.49     0  01:35           0        4.56       0.007
  YS02001745           JUNCTION    667.30   667.30     0  03:01        5.93        5.93       0.188
  YS02001748           JUNCTION      0.04   667.57     0  03:01     0.00127        5.92       0.374
  YS02001751           JUNCTION      0.01   667.64     0  03:01     0.00031         5.9       0.409
  YS02001754           JUNCTION      0.26   667.94     0  03:01     0.00733        5.89       0.417
  YS02001762           JUNCTION      0.00   376.55     0  01:28           0        2.94       0.726
  YS02001765           JUNCTION      0.00   367.43     0  01:28           0        2.93       0.838
  YS02001767           JUNCTION      0.54   359.41     0  01:28      0.0151        2.95       1.223
  YS02001770           JUNCTION    751.30  1098.16     0  03:01        6.45        7.76       0.403
  YS02001774           JUNCTION      0.00   852.10     0  03:03           0        5.84       0.432
  YS02001779           JUNCTION      0.01   851.72     0  03:03    0.000141        5.81       0.262
  YS02001882           JUNCTION      0.00    29.86     0  01:30           0      0.0523       6.039
  YS02001884           JUNCTION      0.00    64.46     0  01:29           0      0.0934       7.683
  YS02001759           JUNCTION    717.99   908.46     0  01:47        6.03        7.63       0.299
  YS02001887           JUNCTION    814.61   816.01     0  01:57        6.69        6.73       0.131
  YS02001890           JUNCTION      0.00   816.05     0  01:57           0        6.67       0.154
  YS02001898           JUNCTION      0.00   600.33     0  01:32           0         5.4       0.042
  YS02001901           JUNCTION      0.00   605.41     0  01:32           0         5.4       0.163
  YS02001904           JUNCTION      0.00   607.36     0  01:32           0        5.39       0.135
  YS02001907           JUNCTION      0.00  1427.61     0  03:01           0          14       0.178
  YS02001910           JUNCTION      0.00   911.18     0  03:01           0         8.6       0.135
  YS02001915           JUNCTION    557.90   911.05     0  03:01        4.87        8.65       0.088
  YS02001918           JUNCTION      0.00   439.54     0  01:32           0        3.81       0.065
  YS02001619           JUNCTION    574.80   574.80     0  03:01        5.02        5.02       0.241
  YS02001629           JUNCTION      0.00   275.91     0  01:26           0        2.08       1.362
  YS02001641           JUNCTION      0.00   478.06     0  01:28           0        6.13       0.346
  YS02001644           JUNCTION    644.82  1924.55     0  03:01        5.75        17.8       0.145
  YS02001652           JUNCTION      0.00   639.56     0  03:01           0        5.23       0.430
  YS02001655           JUNCTION      0.15   639.55     0  03:01     0.00434        5.25       0.490
  YS02001920           JUNCTION      2.87   403.92     0  01:33      0.0809        3.79       0.094
  YS02001923           JUNCTION      0.04   404.29     0  01:33     0.00106        3.69       0.050
  YS02001926           JUNCTION      0.05   464.85     0  01:33     0.00147        3.66       0.072
  YS02001929           JUNCTION    352.81   352.81     0  03:01        3.64        3.65       0.008
  YS02001658           JUNCTION      0.00   639.38     0  03:01           0        5.27       0.474
  YS02001661           JUNCTION      0.00   792.82     0  01:44           0         5.6      -0.212
  YS02001664           JUNCTION    638.31   638.31     0  03:01        5.26        5.61       0.103
  YS02001622           JUNCTION      0.00   574.82     0  03:01           0        5.01       0.637
  YS02001633           JUNCTION    658.84   658.84     0  03:01        5.91        7.07       0.452
  YS02001649           JUNCTION      0.00  1436.69     0  03:01           0        9.61       0.386
  YS02001757           JUNCTION      0.00  2193.36     0  01:46           0        14.8       0.621
  YS02001895           JUNCTION      0.00   596.16     0  01:32           0        5.39       0.132
  YS02001625           JUNCTION      0.00   801.01     0  03:01           0        5.86       0.681
  YS02163301           JUNCTION      0.00   279.21     0  01:26           0        2.08       1.161
  YS02163601           JUNCTION      0.11   469.86     0  01:28      0.0031        6.14       0.490
  YS02164001           JUNCTION      0.00   472.81     0  01:28           0        6.12       0.325
  YS02001647           JUNCTION      0.00   846.70     0  03:04           0        7.39       0.383
  YSB1154              JUNCTION     59.56    59.56     0  01:33        0.26        0.26       0.556
  YSB6556              JUNCTION      0.00    59.43     0  01:33           0       0.261       0.488
  YSB1174              JUNCTION     51.10    51.10     0  01:30       0.195       0.195       0.658
  YSB1171              JUNCTION      0.00   108.25     0  01:32           0       0.462       1.394
  YS02006553           JUNCTION      0.00   730.37     0  04:01           0        7.58       0.213
  YS02006561           JUNCTION      0.00  1053.88     0  01:32           0        13.8       0.006
  YS02006556           JUNCTION      0.00   730.71     0  04:01           0        7.59       0.154
  YS02006558           JUNCTION    751.16  1053.58     0  01:32        6.28        13.8       0.040
  YS02001783           JUNCTION      0.00  1026.52     0  01:31           0        13.8       0.021
  YS02001784           JUNCTION      1.06  1028.14     0  01:31      0.0299        13.8       0.030
  YS02001786           JUNCTION      0.06  1028.44     0  01:31     0.00159        13.8       0.030
  YS02001788           JUNCTION      0.07  1002.39     0  01:31       0.002        13.8       0.018
  YS02001790           JUNCTION      0.15   984.19     0  02:02     0.00437        13.8       0.017
  YS02001791           JUNCTION      0.00   984.02     0  01:53           0        13.8       0.009
  YS02001793           JUNCTION      0.00   984.54     0  01:59           0        13.8      -0.013
  WSC                  OUTFALL       0.00  1387.64     0  01:42           0        24.3       0.000
  JK-storage           STORAGE       0.00  1012.90     0  01:30           0          14      -6.871
  CC-storage           STORAGE       0.00  2194.96     0  01:46           0        11.6       0.354
  XR-storage           STORAGE    1680.85  1680.85     0  03:01        21.3        21.9      -0.000
  
  
  **********************
  Node Surcharge Summary
  **********************
  
  Surcharging occurs when water rises above the top of the highest conduit.
  ---------------------------------------------------------------------
                                               Max. Height   Min. Depth
                                   Hours       Above Crown    Below Rim
  Node                 Type      Surcharged         Meters       Meters
  ---------------------------------------------------------------------
  WS02004401           JUNCTION        1.89          0.571        1.089
  WS02004402           JUNCTION        1.93          0.526        1.214
  WS02004403           JUNCTION        1.94          0.434        1.596
  WS02004404           JUNCTION        2.29          0.453        2.327
  WS02004406           JUNCTION        2.10          0.755        1.695
  WS02004409           JUNCTION        0.17          0.049        2.311
  WS02004410           JUNCTION        0.01          0.021        2.519
  WS02004413           JUNCTION        0.92          0.050        2.150
  WS02004405           JUNCTION        2.17          0.411        2.389
  WS02006109           JUNCTION        5.33          1.058        0.762
  WS02006110           JUNCTION        4.44          0.906        0.944
  WS02006111           JUNCTION        0.70          0.476        1.394
  WS02006112           JUNCTION        4.51          0.861        0.819
  WS02006113           JUNCTION        0.77          0.552        1.378
  WS02006115           JUNCTION        1.77          0.478        1.772
  WS02006116           JUNCTION        1.78          0.513        1.777
  WS02006230           JUNCTION        4.39          1.570        0.000
  WS02006231           JUNCTION        4.54          1.530        0.000
  WS02006232           JUNCTION        5.37          1.255        0.225
  WS02006234           JUNCTION        4.91          1.240        0.000
  WS02006235           JUNCTION        5.26          1.290        0.000
  WS02006238           JUNCTION        5.31          1.316        0.114
  WS02006240           JUNCTION        5.06          1.303        0.087
  WS02006242           JUNCTION        5.20          0.820        0.000
  WS02006243           JUNCTION        5.01          0.770        0.000
  WS02006245           JUNCTION        4.99          0.850        0.000
  WS02006247           JUNCTION        5.01          0.760        0.000
  WS02006248           JUNCTION        4.85          0.380        0.000
  WS02006249           JUNCTION        4.91          0.390        0.000
  WS02006239           JUNCTION        5.17          1.180        0.110
  WS02006251           JUNCTION        4.27          1.180        0.000
  WS02006252           JUNCTION        5.48          1.100        0.000
  WS02006253           JUNCTION        4.33          0.783        1.697
  WS02006256           JUNCTION        6.89          2.050        0.000
  WS02006228           JUNCTION        5.31          1.250        0.950
  HS02004817           JUNCTION        0.46          0.066        1.674
  YS02001745           JUNCTION        0.63          0.115        1.235
  YS02001748           JUNCTION        6.35          0.548        0.642
  YS02001751           JUNCTION        6.36          0.656        0.544
  YS02001754           JUNCTION        6.38          0.844        0.306
  YS02001762           JUNCTION        6.40          1.084        0.066
  YS02001765           JUNCTION        6.40          1.024        0.076
  YS02001767           JUNCTION        6.39          0.979        0.051
  YS02001770           JUNCTION        6.39          0.920        0.000
  YS02001774           JUNCTION        6.40          1.050        0.000
  YS02001779           JUNCTION        6.37          0.680        0.000
  YS02001882           JUNCTION        2.54          0.710        0.120
  YS02001884           JUNCTION        2.55          0.734        0.136
  YS02001759           JUNCTION        6.41          1.123        0.087
  YS02001887           JUNCTION        2.62          0.790        0.160
  YS02001890           JUNCTION        2.64          0.760        0.000
  YS02001898           JUNCTION        2.51          0.555        0.185
  YS02001901           JUNCTION        2.59          0.694        0.176
  YS02001904           JUNCTION        2.57          0.650        0.200
  YS02001907           JUNCTION        3.15          0.950        0.000
  YS02001910           JUNCTION        2.67          1.036        0.064
  YS02001915           JUNCTION        2.53          0.982        0.018
  YS02001918           JUNCTION        2.40          0.810        0.000
  YS02001619           JUNCTION        6.37          0.610        0.000
  YS02001629           JUNCTION        6.37          0.470        0.000
  YS02001641           JUNCTION        6.40          0.955        0.145
  YS02001644           JUNCTION        6.40          0.920        0.000
  YS02001652           JUNCTION        6.38          0.952        0.178
  YS02001655           JUNCTION        6.37          0.841        0.359
  YS02001920           JUNCTION        2.42          1.104        0.036
  YS02001923           JUNCTION        0.01          0.798        0.022
  YS02001926           JUNCTION        0.01          0.900        0.000
  YS02001929           JUNCTION        0.01          0.780        0.000
  YS02001658           JUNCTION        6.35          0.614        0.686
  YS02001661           JUNCTION        1.27          0.473        0.917
  YS02001622           JUNCTION        6.37          0.620        0.000
  YS02001633           JUNCTION        6.40          0.949        0.111
  YS02001649           JUNCTION        6.40          1.050        0.000
  YS02001757           JUNCTION        6.42          1.210        0.000
  YS02001895           JUNCTION        2.52          0.569        0.181
  YS02001625           JUNCTION        6.38          0.780        0.000
  YS02163301           JUNCTION        6.39          0.926        0.104
  YS02163601           JUNCTION        6.40          1.022        0.058
  YS02164001           JUNCTION        6.40          0.954        0.146
  YS02001647           JUNCTION        6.38          0.797        0.103
  YS02006553           JUNCTION        3.21          0.976        0.214
  YS02006561           JUNCTION        2.42          0.477        0.673
  YS02006556           JUNCTION        2.84          0.922        0.428
  YS02006558           JUNCTION        2.81          0.917        0.483
  YS02001783           JUNCTION        2.63          0.882        0.718
  YS02001784           JUNCTION        2.60          0.844        0.646
  YS02001786           JUNCTION        2.52          0.875        0.555
  YS02001788           JUNCTION        2.47          0.866        0.614
  YS02001790           JUNCTION        3.28          0.954        0.203
  YS02001791           JUNCTION        3.39          0.855        1.065
  YS02001793           JUNCTION        3.70          0.903        1.697
  
  
  *********************
  Node Flooding Summary
  *********************
  
  Flooding refers to all water that overflows a node, whether it ponds or not.
  --------------------------------------------------------------------------
                                                             Total   Maximum
                                 Maximum   Time of Max       Flood    Ponded
                        Hours       Rate    Occurrence      Volume     Depth
  Node                 Flooded       LPS   days hr:min    10^6 ltr    Meters
  --------------------------------------------------------------------------
  WS02006230              0.01    303.28      0  01:26       0.000     0.000
  WS02006231              0.01    171.34      0  01:26       0.000     0.000
  WS02006234              0.01      2.91      0  01:26       0.000     0.000
  WS02006235              0.01      6.79      0  01:26       0.000     0.000
  WS02006242              0.01     81.66      0  01:26       0.000     0.000
  WS02006243              0.01     75.51      0  01:26       0.000     0.000
  WS02006245              0.01     84.67      0  01:26       0.000     0.000
  WS02006247              0.01     57.64      0  01:26       0.000     0.000
  WS02006248              0.50    217.57      0  01:33       0.207     0.000
  WS02006249              4.27    530.65      0  01:37       2.776     0.000
  WS02006251              0.01     94.90      0  01:26       0.000     0.000
  WS02006252              0.01     40.72      0  01:26       0.000     0.000
  WS02006256              4.87    978.40      0  00:00      10.936     0.000
  YS02001770              0.69    246.98      0  03:01       0.252     0.000
  YS02001774              0.01      4.63      0  01:26       0.000     0.000
  YS02001779              3.90    851.46      0  03:03       5.791     0.000
  YS02001890              1.74    299.21      0  01:56       1.275     0.000
  YS02001907              2.27   1196.87      0  03:01       6.359     0.000
  YS02001918              0.01     97.40      0  01:33       0.001     0.000
  YS02001619              0.01     20.78      0  01:27       0.000     0.000
  YS02001629              0.01    187.93      0  01:27       0.002     0.000
  YS02001644              5.90   1924.51      0  03:01      16.369     0.000
  YS02001926              0.01     22.46      0  01:33       0.000     0.000
  YS02001929              0.01    260.08      0  01:33       0.001     0.000
  YS02001622              0.01     92.77      0  01:27       0.000     0.000
  YS02001649              0.90    589.88      0  03:01       0.933     0.000
  YS02001757              0.16     57.47      0  03:07       0.018     0.000
  YS02001625              3.01    800.97      0  03:01       4.639     0.000
  JK-storage              0.67    697.67      0  01:32       0.651     0.000
  XR-storage              6.03   1300.75      0  03:01      10.740     0.000
  
  
  **********************
  Storage Volume Summary
  **********************
  
  --------------------------------------------------------------------------------------------------
                         Average     Avg  Evap Exfil       Maximum     Max    Time of Max    Maximum
                          Volume    Pcnt  Pcnt  Pcnt        Volume    Pcnt     Occurrence    Outflow
  Storage Unit           1000 m3    Full  Loss  Loss       1000 m3    Full    days hr:min        LPS
  --------------------------------------------------------------------------------------------------
  JK-storage               0.187      64     0     0         0.291     100       0  01:32     983.00
  CC-storage               3.372      21     0     0         4.130      26       0  03:04     400.00
  XR-storage               0.868      94     0     0         0.926     100       0  01:47     380.00
  
  
  ***********************
  Outfall Loading Summary
  ***********************
  
  ---------------------------------------------------------------------------------------------------------------------------------
                         Flow       Avg       Max       Total         Total         Total         Total         Total         Total
                         Freq      Flow      Flow      Volume           COD            SS            TN            TP         NH4-N
  Outfall Node           Pcnt       LPS       LPS    10^6 ltr            kg            kg            kg            kg            kg
  ---------------------------------------------------------------------------------------------------------------------------------
  WSC                   99.98    894.33   1387.64      24.267      3003.168      5535.776       137.561        15.028        80.096
  ---------------------------------------------------------------------------------------------------------------------------------
  System                99.98    894.33   1387.64      24.267      3003.168      5535.776       137.561        15.028        80.096
  
  
  ********************
  Link Flow Summary
  ********************
  
  -----------------------------------------------------------------------------
                                 Maximum  Time of Max   Maximum    Max/    Max/
                                  |Flow|   Occurrence   |Veloc|    Full    Full
  Link                 Type          LPS  days hr:min     m/sec    Flow   Depth
  -----------------------------------------------------------------------------
  WS02003066WSF200     CONDUIT   1002.83     0  01:33      3.10    0.17    0.33
  WS02006287WS02006284 CONDUIT    934.65     0  01:35      2.63    0.43    0.46
  WS02006284WS02006280 CONDUIT    934.83     0  01:35      2.85    0.39    0.43
  WS02006280WS02006229 CONDUIT    935.40     0  01:35      4.17    0.20    0.73
  WS02006229WS02006228 CONDUIT    980.67     0  01:27      1.95    3.25    1.00
  WS02006256WS02006235 CONDUIT    288.60     0  00:00      4.23    3.05    1.00
  WS02006253WS02006251 CONDUIT    231.20     0  01:27      0.67    0.69    1.00
  WS02006252WS02006251 CONDUIT    407.72     0  01:27      3.24    1.50    1.00
  WS02006251WS02006249 CONDUIT    642.09     0  01:27      1.67    1.85    1.00
  WS02006249WS02006248 CONDUIT    500.78     0  01:26      1.38    2.74    1.00
  WS02006248WS02006247 CONDUIT    487.53     0  01:26      1.36    1.06    1.00
  WS02006247WS02006245 CONDUIT    484.36     0  01:25      1.35    3.84    1.00
  WS02006245WS02006243 CONDUIT    465.86     0  01:25      1.41    1.38    1.00
  WS02006243WS02006242 CONDUIT    429.62     0  01:26      1.28    0.92    1.00
  WS02006242WS02006240 CONDUIT    411.69     0  01:26      1.08    1.64    1.00
  WS02006240WS02006239 CONDUIT    400.61     0  06:39      1.04    1.26    1.00
  WS02006239WS02006238 CONDUIT    400.73     0  06:40      1.04    1.28    1.00
  WS02006238WS02006235 CONDUIT    402.25     0  06:33      1.46    0.90    1.00
  WS02006235WS02006234 CONDUIT    523.12     0  05:34      1.36    5.52    1.00
  WS02006234WS02006232 CONDUIT    522.47     0  07:45      1.39    1.06    1.00
  WS02006232WS02006231 CONDUIT    522.67     0  07:40      1.36    1.10    1.00
  WS02006231WS02006230 CONDUIT    522.37     0  07:40      1.40    7.92    1.00
  WS02006230WS02006229 CONDUIT    532.80     0  05:34      1.38   11.86    1.00
  WS02006228WS02006109 CONDUIT    980.39     0  01:27      1.95    4.28    1.00
  WS02006116WS02004401 CONDUIT   1015.55     0  01:31      1.29    1.40    1.00
  WS02006115WS02006116 CONDUIT   1015.34     0  01:31      1.29    1.30    1.00
  WS02006113WS02006111 CONDUIT    984.85     0  01:27      2.72    1.18    1.00
  WS02006112WS02006115 CONDUIT   1015.42     0  01:31      1.29    0.60    1.00
  WS02006111WS02006112 CONDUIT    975.97     0  01:31      2.12    0.46    1.00
  WS02006110WS02006113 CONDUIT    981.72     0  01:27      2.07    0.89    1.00
  WS02006109WS02006110 CONDUIT    981.71     0  01:27      1.95    1.89    1.00
  WS02004411WS02004412 CONDUIT   1002.25     0  01:32      1.31    1.42    0.96
  WS02004401WS02004402 CONDUIT   1015.86     0  01:31      1.29    1.22    1.00
  WS02004413WS02003067 CONDUIT    997.87     0  01:33      1.63    0.43    0.73
  WS02004412WS02004413 CONDUIT    997.42     0  01:33      1.28    0.67    0.97
  WS02004410WS02004411 CONDUIT   1001.47     0  01:33      1.40    1.37    0.99
  WS02004409WS02004410 CONDUIT   1008.62     0  01:32      1.43    1.30    1.00
  WS02004407WS02004409 CONDUIT   1015.80     0  01:31      2.01    0.36    0.72
  WS02004406WS02004407 CONDUIT   1017.56     0  01:31      1.71    0.45    0.72
  WS02004405WS02004406 CONDUIT   1017.19     0  01:31      1.30    2.01    1.00
  WS02004404WS02004405 CONDUIT   1018.03     0  01:31      1.30    9.97    1.00
  WS02004403WS02004404 CONDUIT   1016.79     0  01:31      1.29    0.73    1.00
  WS02004402WS02004403 CONDUIT   1016.04     0  01:31      1.29    1.46    1.00
  WS02004139WS02001211 CONDUIT    384.02     0  01:36      0.90    0.49    0.65
  WS02004138WS02004139 CONDUIT    396.19     0  00:00      3.65    0.08    0.47
  WS02003067WS02003066 CONDUIT   1004.03     0  01:33      1.72    0.32    0.52
  WS02001213WS02003059 CONDUIT    398.00     0  03:14      0.88    0.66    0.89
  WS02001212WS02001213 CONDUIT    395.22     0  03:15      1.32    0.61    0.57
  WS02001211WS02001212 CONDUIT    392.86     0  03:15      0.78    0.30    0.72
  WS02003072WS02003073 CONDUIT   1386.03     0  01:41      1.99    2.99    0.59
  WS02003069WS02003072 CONDUIT   1386.33     0  01:41      1.84    0.67    0.63
  WS02003060WS02003069 CONDUIT   1386.66     0  01:40      2.05    0.54    0.58
  WS02003059WS02003060 CONDUIT    401.29     0  03:14      0.95    0.26    0.79
  HS02004901HS02004770 CONDUIT     47.74     0  01:32      0.11    0.18    0.61
  HS02004876HS02004881 CONDUIT    176.92     0  01:35      1.41    1.88    0.18
  HS02004870HS02004876 CONDUIT    143.30     0  01:35      0.95    0.10    0.22
  HS02004842HS02004848 CONDUIT     21.86     0  01:49      0.09    0.01    0.35
  HS02004837HS02004842 CONDUIT     22.38     0  01:49      0.42    0.01    0.37
  HS02004830HS02004837 CONDUIT     81.97     0  01:35      0.70    0.08    0.18
  HS02004824HS02004830 CONDUIT     82.82     0  01:37      0.63    0.11    0.25
  HS02004817HS02004824 CONDUIT    165.99     0  01:39      0.37    0.07    0.64
  HS02004770HS02004777 CONDUIT    244.64     0  01:32      0.57    0.45    0.62
  HS02004799HS02004480 CONDUIT    605.42     0  01:33      1.21    0.76    0.71
  HS02004792HS02004799 CONDUIT    554.25     0  01:33      1.36    0.34    0.58
  HS02004788HS02004792 CONDUIT    319.85     0  01:34      1.40    0.21    0.33
  HS02004785HS02004788 CONDUIT    244.45     0  01:33      1.02    1.84    0.34
  HS02004777HS02004785 CONDUIT    244.32     0  01:33      0.67    0.30    0.52
  HS02004480HS02004478 CONDUIT    712.97     0  01:33      1.74    3.00    0.59
  HS02004479HS02004480 CONDUIT    107.64     0  01:33      0.45    0.10    0.68
  HS02004862HS02004870 CONDUIT    109.57     0  01:36      0.90    0.12    0.17
  HS02004848HS02004852 CONDUIT     51.63     0  01:36      0.58    0.06    0.13
  HS02004856HS02004862 CONDUIT     76.86     0  01:35      0.67    0.08    0.16
  HS02004852HS02004856 CONDUIT     51.73     0  01:36      0.39    0.06    0.19
  HS02004802HS02004478 CONDUIT    227.59     0  01:37      0.57    0.20    0.58
  HS02004478WS02006287 CONDUIT    934.58     0  01:35      2.37    0.26    0.44
  HS02004817HS02004807 CONDUIT    166.67     0  01:39      0.30    0.10    0.81
  HS02004807HS02004802 CONDUIT    226.39     0  01:37      0.51    0.43    0.64
  YS02001759YS02001757 CONDUIT    908.14     0  01:48      1.16    0.65    1.00
  YS02001762YS02001759 CONDUIT    384.15     0  01:28      0.49    0.44    1.00
  YS02001765YS02001762 CONDUIT    376.55     0  01:28      0.48    0.35    1.00
  YS02001770YS02001767 CONDUIT    358.87     0  01:28      0.50    1.42    1.00
  YS02001774YS02001770 CONDUIT    852.10     0  03:03      1.08    0.54    1.00
  YS02001779YS02001774 CONDUIT    851.71     0  03:03      1.08    0.43    1.00
  YS02001649YS02001757 CONDUIT    844.61     0  01:43      1.08    0.51    1.00
  YS02001767YS02001765 CONDUIT    367.43     0  01:28      0.48    0.46    1.00
  YS02006561YS02001783 CONDUIT   1026.52     0  01:31      2.27    0.53    1.00
  YS02001783YS02001784 CONDUIT   1027.08     0  01:31      2.04    1.42    1.00
  YS02001784YS02001785 CONDUIT   1028.38     0  01:31      2.08    2.39    1.00
  YS02001788YS02001790 CONDUIT    984.03     0  02:02      2.48    0.73    1.00
  YS02001790YS02001791 CONDUIT    984.02     0  01:53      2.98    1.07    1.00
  YS02001791YS02001793 CONDUIT    984.54     0  01:59      5.83    0.42    1.00
  YS02001910YS02001907 CONDUIT    911.22     0  03:01      1.16    0.51    1.00
  YS02001786YS02001788 CONDUIT   1002.32     0  01:31      2.31    1.93    1.00
  YS02001915YS02001910 CONDUIT    911.18     0  03:01      1.16    0.45    1.00
  YS02001918YS02001915 CONDUIT    439.54     0  01:32      0.57    0.24    1.00
  YS02001923YS02001920 CONDUIT    404.26     0  01:33      0.91    0.18    1.00
  YS02001926YS02001923 CONDUIT    464.80     0  01:33      1.01    0.66    1.00
  YS02001929YS02001926 CONDUIT    352.44     0  03:01      1.07    0.17    1.00
  YS02001920YS02001918 CONDUIT    401.05     0  01:33      0.84    0.39    1.00
  YS02001629YS02163301 CONDUIT    275.91     0  01:26      0.35    0.34    1.00
  YS02001619YS02001622 CONDUIT    574.82     0  03:01      0.86    0.85    1.00
  YS02001622YS02001625 CONDUIT    574.91     0  03:01      0.73    0.31    1.00
  YS02001625YS02001629 CONDUIT    256.74     0  01:26      0.39    0.12    1.00
  YS02163301YS02001633 CONDUIT    279.21     0  01:26      0.36    0.26    1.00
  YS02163601YS02164001 CONDUIT    472.81     0  01:28      0.60    0.42    1.00
  YS02164001YS02001641 CONDUIT    478.06     0  01:28      0.61    0.65    1.00
  YS02001641YS02001644 CONDUIT    479.54     0  01:28      0.61    1.55    1.00
  YS02001647YS02001649 CONDUIT    846.70     0  03:04      1.08    0.45    1.00
  YS02006553YS02006556 CONDUIT    730.71     0  04:01      0.93    0.63    1.00
  YS02006556YS02006558 CONDUIT    731.56     0  04:02      0.93    0.58    1.00
  YSB6556YSB1171       CONDUIT     59.51     0  01:34      0.17    0.06    0.88
  YS02001907YS02006553 CONDUIT    730.37     0  04:01      0.81    0.86    1.00
  YS02006558YS02006561 CONDUIT   1053.88     0  01:32      3.75    2.33    1.00
  YS02001633YS02163601 CONDUIT    469.75     0  01:28      0.60    0.49    1.00
  YS02001644YS02001647 CONDUIT    846.70     0  03:04      1.08    0.50    1.00
  YS02001745YS02001748 CONDUIT    667.52     0  03:01      1.86    0.26    1.00
  YS02001748YS02001751 CONDUIT    667.63     0  03:01      1.40    0.34    1.00
  YS02001751YS02001754 CONDUIT    667.68     0  03:01      1.15    0.32    1.00
  YS02001754YS02001757 CONDUIT    667.96     0  03:01      0.85    0.27    1.00
  YS02001882YS02001884 CONDUIT     29.86     0  01:30      0.22    0.03    1.00
  YS02001884YS02001887 CONDUIT     64.46     0  01:29      0.16    0.09    1.00
  YS02001890YS02001895 CONDUIT    596.16     0  01:32      0.76    0.28    1.00
  YS02001895YS02001898 CONDUIT    600.33     0  01:32      0.76    1.04    1.00
  YS02001898YS02001901 CONDUIT    605.41     0  01:32      0.77    0.39    1.00
  YS02001901YS02001904 CONDUIT    607.36     0  01:32      0.77    0.94    1.00
  YS02001904YS02001907 CONDUIT    609.44     0  01:32      0.78    0.21    1.00
  YS02001887YS02001890 CONDUIT    816.05     0  01:57      1.04    1.40    1.00
  YS02001652YS02001649 CONDUIT    639.56     0  03:01      0.84    0.32    1.00
  YS02001655YS02001652 CONDUIT    639.56     0  03:01      1.25    0.31    1.00
  YS02001658YS02001655 CONDUIT    639.40     0  03:01      1.61    0.27    1.00
  YS02001661YS02001658 CONDUIT    639.38     0  03:01      1.99    0.25    1.00
  YS02001664YS02001661 CONDUIT    792.82     0  01:44      1.90    0.25    0.88
  YSB1154YSB6556       CONDUIT     59.43     0  01:33      0.17    0.11    0.84
  YSB1174YSB1171       CONDUIT     50.31     0  01:30      0.14    0.08    0.92
  YSB1171HS02004479    CONDUIT    107.71     0  01:33      0.54    0.07    0.78
  HS02004881HS02006253 CONDUIT    226.16     0  01:27      2.41    0.04    0.56
  YS02001793JiankangQianchi CONDUIT   1012.90     0  01:30     16.63    0.08    1.00
  YS02001757CaochengTiaoxuchi CONDUIT   2194.96     0  01:46      3.86    0.96    1.00
  WSF200WS02003060     CONDUIT   1010.49     0  01:33      2.13    0.22    0.46
  1                    CONDUIT   1387.64     0  01:42      3.62    0.48    0.49
  CC-Pump-1            PUMP       200.00     0  01:23              1.00
  CC-Pump-2            PUMP       200.00     0  01:23              1.00
  JK-Pump-1            PUMP       300.00     0  00:00              1.00
  JK-Pump-2            PUMP       683.00     0  00:00              1.00
  XR-Pump-1            PUMP        95.00     0  00:00              1.00
  XR-Pump-2            PUMP        95.00     0  00:00              1.00
  XR-Pump-3            PUMP        95.00     0  00:00              1.00
  XR-Pump-4            PUMP        95.00     0  00:00              1.00
  
  
  ***************************
  Flow Classification Summary
  ***************************
  
  -------------------------------------------------------------------------------------
                      Adjusted    ---------- Fraction of Time in Flow Class ---------- 
                       /Actual         Up    Down  Sub   Sup   Up    Down  Norm  Inlet 
  Conduit               Length    Dry  Dry   Dry   Crit  Crit  Crit  Crit  Ltd   Ctrl  
  -------------------------------------------------------------------------------------
  WS02003066WSF200        1.00   0.02  0.05  0.00  0.00  0.93  0.00  0.00  0.24  0.00
  WS02006287WS02006284    1.00   0.03  0.01  0.00  0.64  0.32  0.00  0.00  0.61  0.00
  WS02006284WS02006280    1.00   0.04  0.00  0.00  0.00  0.00  0.00  0.96  0.00  0.00
  WS02006280WS02006229    1.00   0.04  0.00  0.00  0.06  0.12  0.00  0.78  0.06  0.00
  WS02006229WS02006228    1.00   0.00  0.00  0.00  1.00  0.00  0.00  0.00  0.00  0.00
  WS02006256WS02006235    1.00   0.00  0.00  0.00  1.00  0.00  0.00  0.00  0.00  0.00
  WS02006253WS02006251    1.00   0.02  0.02  0.00  0.96  0.00  0.01  0.00  0.00  0.00
  WS02006252WS02006251    1.00   0.06  0.00  0.00  0.45  0.00  0.49  0.00  0.00  0.00
  WS02006251WS02006249    1.00   0.00  0.00  0.00  1.00  0.00  0.00  0.00  0.12  0.00
  WS02006249WS02006248    1.00   0.00  0.01  0.00  0.95  0.00  0.04  0.00  0.00  0.00
  WS02006248WS02006247    1.00   0.01  0.00  0.00  0.98  0.00  0.00  0.01  0.01  0.00
  WS02006247WS02006245    1.00   0.01  0.00  0.00  0.96  0.00  0.00  0.03  0.00  0.00
  WS02006245WS02006243    1.00   0.00  0.00  0.00  0.95  0.00  0.00  0.04  0.01  0.00
  WS02006243WS02006242    1.00   0.00  0.00  0.00  0.99  0.00  0.00  0.00  0.15  0.00
  WS02006242WS02006240    1.00   0.00  0.00  0.00  0.99  0.00  0.01  0.00  0.00  0.00
  WS02006240WS02006239    1.00   0.00  0.00  0.00  0.96  0.00  0.00  0.04  0.01  0.00
  WS02006239WS02006238    1.00   0.00  0.00  0.00  1.00  0.00  0.00  0.00  0.11  0.00
  WS02006238WS02006235    1.00   0.00  0.00  0.00  1.00  0.00  0.00  0.00  0.00  0.00
  WS02006235WS02006234    1.00   0.00  0.00  0.00  0.97  0.00  0.03  0.00  0.00  0.00
  WS02006234WS02006232    1.00   0.00  0.00  0.00  1.00  0.00  0.00  0.00  0.06  0.00
  WS02006232WS02006231    1.00   0.00  0.00  0.00  1.00  0.00  0.00  0.00  0.00  0.00
  WS02006231WS02006230    1.00   0.00  0.00  0.00  0.80  0.00  0.20  0.00  0.00  0.00
  WS02006230WS02006229    1.00   0.00  0.00  0.00  1.00  0.00  0.00  0.00  0.01  0.00
  WS02006228WS02006109    1.00   0.00  0.00  0.00  1.00  0.00  0.00  0.00  0.00  0.00
  WS02006116WS02004401    1.00   0.01  0.00  0.00  0.99  0.00  0.00  0.00  0.01  0.00
  WS02006115WS02006116    1.00   0.01  0.00  0.00  0.97  0.00  0.00  0.02  0.01  0.00
  WS02006113WS02006111    1.00   0.01  0.00  0.00  0.18  0.81  0.00  0.00  0.11  0.00
  WS02006112WS02006115    1.00   0.01  0.00  0.00  0.99  0.00  0.00  0.00  0.00  0.00
  WS02006111WS02006112    1.00   0.01  0.00  0.00  0.99  0.00  0.00  0.00  0.70  0.00
  WS02006110WS02006113    1.00   0.00  0.00  0.00  0.99  0.00  0.00  0.00  0.00  0.00
  WS02006109WS02006110    1.00   0.00  0.00  0.00  0.99  0.00  0.00  0.00  0.00  0.00
  WS02004411WS02004412    1.00   0.05  0.00  0.00  0.94  0.00  0.00  0.00  0.00  0.00
  WS02004401WS02004402    1.00   0.01  0.00  0.00  0.99  0.00  0.00  0.00  0.01  0.00
  WS02004413WS02003067    1.00   0.06  0.01  0.00  0.00  0.00  0.93  0.00  0.00  0.00
  WS02004412WS02004413    1.00   0.06  0.00  0.00  0.94  0.00  0.00  0.00  0.00  0.00
  WS02004410WS02004411    1.00   0.05  0.00  0.00  0.95  0.00  0.00  0.00  0.00  0.00
  WS02004409WS02004410    1.00   0.05  0.00  0.00  0.95  0.00  0.00  0.00  0.00  0.00
  WS02004407WS02004409    1.00   0.05  0.00  0.00  0.93  0.02  0.00  0.00  0.80  0.00
  WS02004406WS02004407    1.00   0.00  0.05  0.00  0.95  0.00  0.00  0.00  0.00  0.00
  WS02004405WS02004406    1.00   0.00  0.00  0.00  1.00  0.00  0.00  0.00  0.02  0.00
  WS02004404WS02004405    1.00   0.00  0.00  0.00  1.00  0.00  0.00  0.00  0.00  0.00
  WS02004403WS02004404    1.00   0.00  0.01  0.00  0.99  0.00  0.00  0.00  0.02  0.00
  WS02004402WS02004403    1.00   0.01  0.00  0.00  0.99  0.00  0.00  0.00  0.00  0.00
  WS02004139WS02001211    1.00   0.00  0.00  0.00  1.00  0.00  0.00  0.00  0.00  0.00
  WS02004138WS02004139    1.00   0.00  0.00  0.00  1.00  0.00  0.00  0.00  1.00  0.00
  WS02003067WS02003066    1.00   0.07  0.00  0.00  0.93  0.00  0.00  0.00  0.00  0.00
  WS02001213WS02003059    1.00   0.00  0.00  0.00  1.00  0.00  0.00  0.00  0.00  0.00
  WS02001212WS02001213    1.00   0.00  0.00  0.00  0.92  0.00  0.07  0.00  0.00  0.00
  WS02001211WS02001212    1.00   0.00  0.00  0.00  1.00  0.00  0.00  0.00  0.00  0.00
  WS02003072WS02003073    1.00   0.00  0.00  0.00  0.00  0.00  0.00  1.00  0.00  0.00
  WS02003069WS02003072    1.00   0.00  0.00  0.00  1.00  0.00  0.00  0.00  0.06  0.00
  WS02003060WS02003069    1.00   0.00  0.00  0.00  0.98  0.02  0.00  0.00  0.05  0.00
  WS02003059WS02003060    1.00   0.00  0.00  0.00  1.00  0.00  0.00  0.00  0.00  0.00
  HS02004901HS02004770    1.00   0.04  0.00  0.00  0.96  0.00  0.00  0.00  0.00  0.00
  HS02004876HS02004881    1.00   0.01  0.00  0.00  0.79  0.20  0.00  0.00  0.00  0.00
  HS02004870HS02004876    1.00   0.00  0.00  0.00  0.99  0.00  0.00  0.00  0.95  0.00
  HS02004842HS02004848    1.00   0.00  0.04  0.00  0.96  0.00  0.00  0.00  0.53  0.00
  HS02004837HS02004842    1.00   0.00  0.00  0.00  1.00  0.00  0.00  0.00  0.11  0.00
  HS02004830HS02004837    1.00   0.00  0.00  0.00  1.00  0.00  0.00  0.00  0.99  0.00
  HS02004824HS02004830    1.00   0.00  0.00  0.00  1.00  0.00  0.00  0.00  0.03  0.00
  HS02004817HS02004824    1.00   0.00  0.00  0.00  1.00  0.00  0.00  0.00  0.86  0.00
  HS02004770HS02004777    1.00   0.00  0.04  0.00  0.96  0.00  0.00  0.00  0.01  0.00
  HS02004799HS02004480    1.00   0.00  0.01  0.00  0.96  0.00  0.03  0.00  0.00  0.00
  HS02004792HS02004799    1.00   0.00  0.00  0.00  1.00  0.00  0.00  0.00  0.98  0.00
  HS02004788HS02004792    1.00   0.00  0.00  0.00  1.00  0.00  0.00  0.00  0.98  0.00
  HS02004785HS02004788    1.00   0.00  0.00  0.00  1.00  0.00  0.00  0.00  0.00  0.00
  HS02004777HS02004785    1.00   0.00  0.00  0.00  1.00  0.00  0.00  0.00  0.10  0.00
  HS02004480HS02004478    1.00   0.04  0.00  0.00  0.68  0.00  0.00  0.28  0.00  0.00
  HS02004479HS02004480    1.00   0.01  0.00  0.00  0.99  0.00  0.00  0.00  0.10  0.00
  HS02004862HS02004870    1.00   0.00  0.00  0.00  1.00  0.00  0.00  0.00  0.02  0.00
  HS02004848HS02004852    1.00   0.04  0.00  0.00  0.96  0.00  0.00  0.00  0.83  0.00
  HS02004856HS02004862    1.00   0.00  0.04  0.00  0.96  0.00  0.00  0.00  0.85  0.00
  HS02004852HS02004856    1.00   0.04  0.00  0.00  0.96  0.00  0.00  0.00  0.69  0.00
  HS02004802HS02004478    1.00   0.04  0.00  0.00  0.96  0.00  0.00  0.00  0.01  0.00
  HS02004478WS02006287    1.00   0.04  0.00  0.00  0.72  0.24  0.00  0.00  0.58  0.00
  HS02004817HS02004807    1.00   0.00  0.04  0.00  0.96  0.00  0.00  0.00  0.01  0.00
  HS02004807HS02004802    1.00   0.04  0.00  0.00  0.96  0.00  0.00  0.00  0.00  0.00
  YS02001759YS02001757    1.00   0.00  0.00  0.00  1.00  0.00  0.00  0.00  0.15  0.00
  YS02001762YS02001759    1.00   0.00  0.00  0.00  1.00  0.00  0.00  0.00  0.01  0.00
  YS02001765YS02001762    1.00   0.00  0.00  0.00  1.00  0.00  0.00  0.00  0.13  0.00
  YS02001770YS02001767    1.00   0.00  0.00  0.00  1.00  0.00  0.00  0.00  0.00  0.00
  YS02001774YS02001770    1.00   0.00  0.04  0.00  0.96  0.00  0.00  0.00  0.01  0.00
  YS02001779YS02001774    1.00   0.00  0.00  0.00  1.00  0.00  0.00  0.00  0.15  0.00
  YS02001649YS02001757    1.00   0.00  0.00  0.00  1.00  0.00  0.00  0.00  0.14  0.00
  YS02001767YS02001765    1.00   0.00  0.00  0.00  1.00  0.00  0.00  0.00  0.00  0.00
  YS02006561YS02001783    1.00   0.04  0.00  0.00  0.48  0.48  0.00  0.00  0.34  0.00
  YS02001783YS02001784    1.00   0.00  0.05  0.00  0.95  0.00  0.00  0.00  0.00  0.00
  YS02001784YS02001785    1.00   0.00  0.00  0.00  1.00  0.00  0.00  0.00  0.15  0.00
  YS02001788YS02001790    1.00   0.00  0.00  0.00  0.56  0.44  0.00  0.00  0.26  0.00
  YS02001790YS02001791    1.00   0.00  0.00  0.00  0.54  0.46  0.00  0.00  0.33  0.00
  YS02001791YS02001793    1.00   0.00  0.00  0.00  0.57  0.43  0.00  0.00  0.02  0.00
  YS02001910YS02001907    1.00   0.00  0.00  0.00  0.99  0.00  0.00  0.01  0.11  0.00
  YS02001786YS02001788    1.00   0.00  0.00  0.00  0.53  0.47  0.00  0.00  0.00  0.00
  YS02001915YS02001910    1.00   0.00  0.00  0.00  0.99  0.01  0.00  0.00  0.12  0.00
  YS02001918YS02001915    1.00   0.00  0.00  0.00  0.99  0.00  0.00  0.00  0.43  0.00
  YS02001923YS02001920    1.00   0.00  0.00  0.00  1.00  0.00  0.00  0.00  0.65  0.00
  YS02001926YS02001923    1.00   0.00  0.02  0.00  0.28  0.00  0.70  0.00  0.00  0.00
  YS02001929YS02001926    1.00   0.00  0.04  0.00  0.96  0.00  0.00  0.00  0.56  0.00
  YS02001920YS02001918    1.00   0.00  0.00  0.00  1.00  0.00  0.00  0.00  0.00  0.00
  YS02001629YS02163301    1.00   0.04  0.00  0.00  0.96  0.00  0.00  0.00  0.00  0.00
  YS02001619YS02001622    1.00   0.04  0.00  0.00  0.96  0.00  0.00  0.00  0.00  0.00
  YS02001622YS02001625    1.00   0.04  0.00  0.00  0.96  0.00  0.00  0.00  0.02  0.00
  YS02001625YS02001629    1.00   0.04  0.01  0.00  0.94  0.00  0.01  0.00  0.00  0.00
  YS02163301YS02001633    1.00   0.00  0.04  0.00  0.96  0.00  0.00  0.00  0.00  0.00
  YS02163601YS02164001    1.00   0.00  0.02  0.00  0.98  0.00  0.00  0.00  0.00  0.00
  YS02164001YS02001641    1.00   0.00  0.02  0.00  0.98  0.00  0.00  0.00  0.05  0.00
  YS02001641YS02001644    1.00   0.00  0.00  0.00  1.00  0.00  0.00  0.00  0.00  0.00
  YS02001647YS02001649    1.00   0.00  0.04  0.00  0.96  0.00  0.00  0.00  0.01  0.00
  YS02006553YS02006556    1.00   0.01  0.00  0.00  0.99  0.00  0.00  0.00  0.03  0.00
  YS02006556YS02006558    1.00   0.00  0.00  0.00  1.00  0.00  0.00  0.00  0.00  0.00
  YSB6556YSB1171          1.00   0.01  0.02  0.00  0.96  0.00  0.00  0.00  0.00  0.00
  YS02001907YS02006553    1.00   0.00  0.01  0.00  0.99  0.00  0.00  0.00  0.00  0.00
  YS02006558YS02006561    1.00   0.04  0.00  0.00  0.28  0.68  0.00  0.00  0.35  0.00
  YS02001633YS02163601    1.00   0.00  0.00  0.00  1.00  0.00  0.00  0.00  0.14  0.00
  YS02001644YS02001647    1.00   0.00  0.04  0.00  0.96  0.00  0.00  0.00  0.00  0.00
  YS02001745YS02001748    1.00   0.00  0.00  0.00  0.93  0.00  0.00  0.07  0.00  0.00
  YS02001748YS02001751    1.00   0.00  0.00  0.00  0.98  0.02  0.00  0.00  0.13  0.00
  YS02001751YS02001754    1.00   0.00  0.00  0.00  0.95  0.00  0.00  0.05  0.01  0.00
  YS02001754YS02001757    1.00   0.00  0.00  0.00  1.00  0.00  0.00  0.00  0.15  0.00
  YS02001882YS02001884    1.00   0.04  0.00  0.00  0.96  0.00  0.00  0.00  0.00  0.00
  YS02001884YS02001887    1.00   0.02  0.01  0.00  0.97  0.00  0.00  0.00  0.00  0.00
  YS02001890YS02001895    1.00   0.00  0.04  0.00  0.96  0.00  0.00  0.00  0.00  0.00
  YS02001895YS02001898    1.00   0.04  0.00  0.00  0.95  0.00  0.01  0.00  0.00  0.00
  YS02001898YS02001901    1.00   0.04  0.00  0.00  0.96  0.00  0.00  0.00  0.00  0.00
  YS02001901YS02001904    1.00   0.04  0.00  0.00  0.96  0.00  0.00  0.00  0.00  0.00
  YS02001904YS02001907    1.00   0.00  0.04  0.00  0.96  0.00  0.00  0.00  0.00  0.00
  YS02001887YS02001890    1.00   0.00  0.00  0.00  0.99  0.00  0.01  0.00  0.00  0.00
  YS02001652YS02001649    1.00   0.00  0.00  0.00  1.00  0.00  0.00  0.00  0.14  0.00
  YS02001655YS02001652    1.00   0.00  0.00  0.00  0.95  0.00  0.00  0.05  0.01  0.00
  YS02001658YS02001655    1.00   0.00  0.04  0.00  0.94  0.02  0.00  0.00  0.01  0.00
  YS02001661YS02001658    1.00   0.04  0.00  0.00  0.93  0.03  0.00  0.00  0.00  0.00
  YS02001664YS02001661    1.00   0.04  0.00  0.00  0.93  0.03  0.00  0.00  0.06  0.00
  YSB1154YSB6556          1.00   0.04  0.00  0.00  0.96  0.00  0.00  0.00  0.01  0.00
  YSB1174YSB1171          1.00   0.02  0.01  0.00  0.97  0.00  0.00  0.00  0.00  0.00
  YSB1171HS02004479       1.00   0.01  0.00  0.00  0.98  0.00  0.00  0.00  0.09  0.00
  HS02004881HS02006253    1.00   0.02  0.00  0.00  0.94  0.00  0.00  0.04  0.82  0.00
  YS02001793JiankangQianchi    1.00   0.00  0.00  0.00  0.78  0.22  0.00  0.00  0.27  0.00
  YS02001757CaochengTiaoxuchi    1.00   0.00  0.05  0.00  0.91  0.03  0.00  0.00  0.00  0.00
  WSF200WS02003060        1.00   0.00  0.02  0.00  0.97  0.01  0.00  0.00  0.20  0.00
  1                       1.00   0.00  0.00  0.00  0.00  1.00  0.00  0.00  0.66  0.00
  
  
  *************************
  Conduit Surcharge Summary
  *************************
  
  ----------------------------------------------------------------------------
                                                           Hours        Hours 
[...]
  YS02001649YS02001757        6.40      6.40      6.42      0.01         0.01
  YS02001767YS02001765        6.39      6.39      6.40      0.01         0.01
  YS02006561YS02001783        2.42      2.42      2.63      0.01         0.01
  YS02001783YS02001784        2.60      2.63      2.60      2.88         2.60
  YS02001784YS02001785        2.52      2.60      2.52      3.61         2.52
  YS02001788YS02001790        2.47      2.47      3.28      0.01         0.01
  YS02001790YS02001791        3.28      3.28      3.39      2.56         2.54
  YS02001791YS02001793        3.39      3.39      3.81      0.01         0.01
  YS02001910YS02001907        2.67      2.67      3.15      0.01         0.01
  YS02001786YS02001788        2.46      2.52      2.46      3.26         2.46
  YS02001915YS02001910        2.53      2.53      2.67      0.01         0.01
  YS02001918YS02001915        2.40      2.40      2.53      0.01         0.01
  YS02001923YS02001920        2.24      2.24      2.42      0.01         0.01
  YS02001926YS02001923        0.01      0.01      0.01      0.01         0.01
  YS02001929YS02001926        0.01      0.01      0.01      0.01         0.01
  YS02001920YS02001918        2.40      2.40      2.42      0.01         0.01
  YS02001629YS02163301        6.38      6.38      6.39      0.01         0.01
  YS02001619YS02001622        6.37      6.37      6.37      0.01         0.04
  YS02001622YS02001625        6.37      6.37      6.38      0.01         0.01
  YS02001625YS02001629        6.37      6.37      6.38      0.01         0.01
  YS02163301YS02001633        6.39      6.39      6.40      0.01         0.01
  YS02163601YS02164001        6.40      6.40      6.40      0.01         0.01
  YS02164001YS02001641        6.40      6.40      6.40      0.01         0.03
  YS02001641YS02001644        6.40      6.40      6.40      3.17         3.10
  YS02001647YS02001649        6.38      6.38      6.40      0.01         0.01
  YS02006553YS02006556        2.84      2.84      3.21      0.01         0.01
  YS02006556YS02006558        2.92      2.92      3.27      0.01         0.01
  YSB6556YSB1171              0.01      0.01      0.58      0.01         0.01
  YS02001907YS02006553        3.63      3.63      3.83      0.01         0.01
  YS02006558YS02006561        2.49      2.81      2.49      3.49         2.49
  YS02001633YS02163601        6.40      6.40      6.40      0.01         0.01
  YS02001644YS02001647        6.38      6.38      6.40      0.01         0.01
  YS02001745YS02001748        0.62      0.62      6.35      0.01         0.01
  YS02001748YS02001751        6.35      6.35      6.36      0.01         0.01
  YS02001751YS02001754        6.36      6.36      6.38      0.01         0.01
  YS02001754YS02001757        6.38      6.38      6.42      0.01         0.01
  YS02001882YS02001884        2.54      2.54      2.55      0.01         0.01
  YS02001884YS02001887        2.60      2.60      2.62      0.01         0.01
  YS02001890YS02001895        2.52      2.52      2.69      0.01         0.01
  YS02001895YS02001898        2.51      2.51      2.52      0.01         0.01
  YS02001898YS02001901        2.53      2.53      2.59      0.01         0.01
  YS02001901YS02001904        2.57      2.57      2.59      0.01         0.01
  YS02001904YS02001907        2.57      2.57      3.23      0.01         0.01
  YS02001887YS02001890        2.64      2.64      2.66      1.66         0.01
  YS02001652YS02001649        6.38      6.38      6.40      0.01         0.01
  YS02001655YS02001652        6.37      6.37      6.38      0.01         0.01
  YS02001658YS02001655        6.35      6.35      6.37      0.01         0.01
  YS02001661YS02001658        1.25      1.25      6.35      0.01         0.01
  YS02001664YS02001661        0.01      0.01      2.45      0.01         0.01
  YSB1174YSB1171              0.01      0.01      0.32      0.01         0.01
  HS02004881HS02006253        0.01      0.01      4.33      0.01         0.01
  YS02001793JiankangQianchi        3.70      3.70      4.94      0.01         0.01
  YS02001757CaochengTiaoxuchi        5.86      5.86      6.42      0.01         0.01
  
  
  ***************
  Pumping Summary
  ***************
  
  ---------------------------------------------------------------------------------------------------------
                                                  Min       Avg       Max     Total     Power    % Time Off
                        Percent   Number of      Flow      Flow      Flow    Volume     Usage    Pump Curve
  Pump                 Utilized   Start-Ups       LPS       LPS       LPS  10^6 ltr     Kw-hr    Low   High
  ---------------------------------------------------------------------------------------------------------
  CC-Pump-1               82.78           1      0.00    194.08    200.00     4.532      7.27    0.0    4.5
  CC-Pump-2               72.14           5      0.00    145.31    200.00     3.452      6.39    0.0    5.1
  JK-Pump-1               70.21           4      0.00    253.87    300.00     4.983     60.81    0.0    0.0
  JK-Pump-2               63.82           4      0.00    518.45    683.00     9.358    104.31    0.0   97.8
  XR-Pump-1               97.87           2      0.00     94.28     95.00     2.565     18.43    0.0    0.0
  XR-Pump-2               97.87           2      0.00     94.28     95.00     2.565     18.43    0.0    0.0
  XR-Pump-3               97.87           2      0.00     94.28     95.00     2.565     18.43    0.0    0.0
  XR-Pump-4               97.87           2      0.00     94.28     95.00     2.565     18.43    0.0    0.0
  
  
  ***************************
  Link Pollutant Load Summary
  ***************************
  
  ------------------------------------------------------------------------------------------
                                 COD            SS            TN            TP         NH4-N
  Link                            kg            kg            kg            kg            kg
  ------------------------------------------------------------------------------------------
  WS02003066WSF200          1577.719      3084.707        36.224         2.922        18.382
  WS02006287WS02006284       662.613      1308.418        17.240         1.527         9.010
  WS02006284WS02006280       663.089      1309.172        17.287         1.533         9.040
  WS02006280WS02006229       663.131      1309.327        17.285         1.533         9.039
  WS02006229WS02006228      1565.973      3059.183        35.550         2.833        17.972
  WS02006256WS02006235       283.416       540.654         6.093         0.459         3.039
  WS02006253WS02006251       122.283       248.156         2.573         0.185         1.253
  WS02006252WS02006251       886.372      1733.993        17.027         1.172         8.214
  WS02006251WS02006249      1003.351      1972.189        19.513         1.353         9.429
  WS02006249WS02006248       652.065      1272.404        12.834         0.889         6.217
  WS02006248WS02006247       646.750      1261.513        12.749         0.884         6.180
  WS02006247WS02006245       645.631      1259.307        12.731         0.883         6.172
  WS02006245WS02006243       644.845      1257.779        12.720         0.883         6.168
  WS02006243WS02006242       645.483      1259.013        12.740         0.885         6.180
  WS02006242WS02006240       646.283      1260.509        12.760         0.887         6.191
  WS02006240WS02006239       647.761      1263.371        12.789         0.890         6.206
  WS02006239WS02006238       649.890      1267.615        12.831         0.893         6.227
  WS02006238WS02006235       650.872      1269.542        12.846         0.894         6.234
  WS02006235WS02006234       906.605      1756.930        18.352         1.307         8.977
  WS02006234WS02006232       907.846      1759.406        18.390         1.311         8.998
  WS02006232WS02006231       910.174      1764.023        18.456         1.317         9.034
  WS02006231WS02006230       912.938      1769.598        18.532         1.325         9.074
  WS02006230WS02006229       916.325      1776.549        18.615         1.332         9.118
  WS02006228WS02006109      1565.384      3058.163        35.535         2.831        17.963
  WS02006116WS02004401      1596.522      3117.574        36.739         2.964        18.651
  WS02006115WS02006116      1597.285      3118.814        36.760         2.966        18.662
  WS02006113WS02006111      1571.896      3068.399        36.296         2.929        18.445
  WS02006112WS02006115      1598.945      3121.865        36.808         2.970        18.688
  WS02006111WS02006112      1571.239      3067.069        36.281         2.928        18.437
  WS02006110WS02006113      1572.478      3069.365        36.314         2.931        18.455
  WS02006109WS02006110      1573.489      3071.099        36.347         2.934        18.472
  WS02004411WS02004412      1583.140      3094.126        36.410         2.939        18.485
  WS02004401WS02004402      1594.869      3114.594        36.690         2.960        18.625
  WS02004413WS02003067      1579.046      3087.009        36.263         2.925        18.403
  WS02004412WS02004413      1581.227      3090.839        36.348         2.934        18.451
  WS02004410WS02004411      1584.802      3096.965        36.462         2.944        18.513
  WS02004409WS02004410      1586.457      3099.810        36.516         2.949        18.542
  WS02004407WS02004409      1587.980      3102.392        36.563         2.953        18.568
  WS02004406WS02004407      1588.417      3103.036        36.576         2.954        18.574
  WS02004405WS02004406      1590.715      3107.042        36.666         2.963        18.625
  WS02004404WS02004405      1592.231      3109.722        36.685         2.963        18.632
  WS02004403WS02004404      1592.023      3109.545        36.605         2.952        18.579
  WS02004402WS02004403      1593.404      3112.008        36.647         2.956        18.603
  WS02004139WS02001211      1287.354      2234.281        86.724        10.256        52.520
  WS02004138WS02004139      1293.100      2244.163        87.107        10.301        52.751
  WS02003067WS02003066      1577.998      3085.181        36.234         2.923        18.388
  WS02001213WS02003059      1321.305      2287.090        90.355        10.716        54.806
  WS02001212WS02001213      1329.940      2301.742        90.982        10.791        55.189
  WS02001211WS02001212      1332.135      2305.356        91.165        10.813        55.302
  WS02003072WS02003073      2997.429      5527.714       136.593        14.899        79.473
  WS02003069WS02003072      3002.990      5536.829       137.035        14.953        79.745
  WS02003060WS02003069      3006.090      5542.198       137.170        14.967        79.822
  WS02003059WS02003060      1318.387      2281.953        90.190        10.697        54.708
  HS02004901HS02004770        31.237        62.177         0.612         0.047         0.291
  HS02004876HS02004881       101.413       206.325         2.154         0.154         1.046
  HS02004870HS02004876        77.887       158.592         1.699         0.122         0.826
  HS02004842HS02004848        14.996        29.644         0.314         0.022         0.147
  HS02004837HS02004842        19.707        37.150         0.788         0.082         0.444
  HS02004830HS02004837       101.804       187.053         5.288         0.600         3.141
  HS02004824HS02004830       102.659       188.502         5.363         0.610         3.188
  HS02004817HS02004824       158.467       303.819         6.498         0.682         3.738
  HS02004770HS02004777       119.645       241.811         2.495         0.175         1.169
  HS02004799HS02004480       374.816       742.431         8.578         0.702         4.269
  HS02004792HS02004799       343.079       676.931         8.002         0.666         3.998
  HS02004788HS02004792       180.008       356.927         4.686         0.402         2.399
  HS02004785HS02004788       121.023       244.011         2.637         0.193         1.258
  HS02004777HS02004785       120.342       242.932         2.574         0.185         1.219
  HS02004480HS02004478       464.804       922.658        10.233         0.827         5.069
  HS02004479HS02004480        93.768       186.469         1.954         0.161         0.984
  HS02004862HS02004870        60.203       121.269         1.340         0.100         0.653
  HS02004848HS02004852        26.761        53.671         0.548         0.038         0.256
  HS02004856HS02004862        41.868        85.059         0.850         0.058         0.403
  HS02004852HS02004856        26.784        53.714         0.548         0.038         0.257
  HS02004802HS02004478       198.951       387.613         7.077         0.708         3.983
  HS02004478WS02006287       662.700      1308.470        17.256         1.529         9.021
  HS02004817HS02004807       157.275       302.041         6.356         0.664         3.649
  HS02004807HS02004802       198.917       387.517         7.102         0.712         4.000
  YS02001759YS02001757       698.005      1350.225        13.626         0.964         6.644
  YS02001762YS02001759       308.409       591.313         6.333         0.450         3.114
  YS02001765YS02001762       308.911       593.614         6.354         0.452         3.126
  YS02001770YS02001767       313.596       606.384         6.293         0.437         3.072
  YS02001774YS02001770       742.764      1483.100        14.529         0.988         7.053
  YS02001779YS02001774       741.887      1481.513        14.584         0.998         7.094
  YS02001649YS02001757       583.485      1127.108        11.537         0.806         5.559
  YS02001767YS02001765       310.797       598.658         6.396         0.455         3.148
  YS02006561YS02001783      1599.789      3068.400        33.111         2.425        16.330
  YS02001783YS02001784      1599.671      3068.223        33.107         2.425        16.327
  YS02001784YS02001785      1607.087      3080.159        33.821         2.514        16.774
  YS02001788YS02001790      1607.726      3081.236        33.894         2.523        16.820
  YS02001790YS02001791      1608.803      3083.029        33.994         2.536        16.883
  YS02001791YS02001793      1608.647      3082.734        33.989         2.536        16.880
  YS02001910YS02001907       952.059      1849.778        20.352         1.453        10.122
  YS02001786YS02001788      1607.315      3080.564        33.850         2.518        16.792
  YS02001915YS02001910       951.469      1848.609        20.301         1.446        10.089
  YS02001918YS02001915       473.219       888.174        10.549         0.857         5.395
  YS02001923YS02001920       447.675       844.252         8.516         0.610         4.141
  YS02001926YS02001923       444.542       838.546         8.394         0.598         4.071
  YS02001929YS02001926       441.880       833.789         8.300         0.589         4.018
  YS02001920YS02001918       468.752       878.730        10.453         0.851         5.348
  YS02001629YS02163301       210.170       397.587         4.136         0.295         1.979
  YS02001619YS02001622       451.054       868.504         9.084         0.615         4.292
  YS02001622YS02001625       450.708       868.042         9.072         0.614         4.286
  YS02001625YS02001629       204.572       386.615         4.036         0.286         1.928
  YS02163301YS02001633       215.926       408.881         4.236         0.303         2.028
  YS02163601YS02164001       715.650      1349.042        13.894         1.021         6.714
  YS02164001YS02001641       716.318      1350.248        13.894         1.021         6.712
  YS02001641YS02001644       718.718      1354.591        13.929         1.023         6.728
  YS02001647YS02001649       751.927      1444.711        15.037         1.067         7.197
  YS02006553YS02006556       809.175      1514.725        17.509         1.315         8.760
  YS02006556YS02006558       809.696      1515.713        17.477         1.310         8.737
  YSB6556YSB1171              54.545       108.517         1.086         0.087         0.541
  YS02001907YS02006553       808.935      1514.263        17.552         1.322         8.790
  YS02006558YS02006561      1599.670      3068.147        33.109         2.425        16.329
  YS02001633YS02163601       716.196      1349.933        13.870         1.017         6.696
  YS02001644YS02001647       760.014      1460.667        15.172         1.077         7.262
  YS02001745YS02001748       597.923      1178.624        11.861         0.761         5.723
  YS02001748YS02001751       597.599      1178.130        11.875         0.764         5.734
  YS02001751YS02001754       596.960      1177.102        11.864         0.764         5.730
  YS02001754YS02001757       598.095      1178.903        12.032         0.786         5.838
  YS02001882YS02001884         7.093        12.960         0.130         0.010         0.064
  YS02001884YS02001887         8.590        15.801         0.158         0.012         0.077
  YS02001890YS02001895       826.949      1597.971        15.718         1.198         7.697
  YS02001895YS02001898       826.840      1597.873        15.713         1.197         7.694
  YS02001898YS02001901       826.452      1597.205        15.703         1.196         7.688
  YS02001901YS02001904       825.758      1596.217        15.700         1.197         7.689
  YS02001904YS02001907       827.412      1598.762        15.803         1.209         7.751
  YS02001887YS02001890      1075.597      2094.320        20.303         1.549         9.937
  YS02001652YS02001649       540.752      1048.097        10.767         0.786         5.085
  YS02001655YS02001652       541.256      1048.950        10.781         0.787         5.092
  YS02001658YS02001655       540.728      1048.151        10.694         0.776         5.036
  YS02001661YS02001658       541.010      1048.629        10.701         0.776         5.039
  YS02001664YS02001661       554.427      1069.906        11.035         0.799         5.193
  YSB1154YSB6556              54.070       107.776         1.038         0.081         0.511
  YSB1174YSB1171              37.704        75.535         0.747         0.059         0.369
  YSB1171HS02004479           93.610       186.161         1.960         0.162         0.989
  HS02004881HS02006253       114.000       232.498         2.381         0.168         1.154
  YS02001793JiankangQianchi      1609.178      3083.599        34.010         2.538        16.892
  YS02001757CaochengTiaoxuchi      1165.455      2247.418        22.951         1.580        11.103
  WSF200WS02003060          1577.132      3083.689        36.219         2.922        18.381
  1                         3003.168      5535.776       137.561        15.028        80.096
  CC-Pump-1                  493.739       963.475         9.532         0.656         4.601
  CC-Pump-2                  392.716       770.673         7.497         0.516         3.614
  JK-Pump-1                  459.895       885.640         9.659         0.720         4.792
  JK-Pump-2                  995.406      1933.565        20.289         1.488         9.989
  XR-Pump-1                  324.178       562.565        21.845         2.583        13.229
  XR-Pump-2                  324.178       562.565        21.845         2.583        13.229
  XR-Pump-3                  324.178       562.565        21.845         2.583        13.229
  XR-Pump-4                  324.178       562.565        21.845         2.583        13.229
  

  Analysis begun on:  Wed Jun  2 21:33:12 2021
  Analysis ended on:  Wed Jun  2 21:33:15 2021
  Total elapsed time: 00:00:03