
  EPA STORM WATER MANAGEMENT MODEL - VERSION 5.1 (Build 5.1.013)
  --------------------------------------------------------------

  WARNING 04: minimum elevation drop used for Conduit WS02004404WS02004405
  WARNING 03: negative offset ignored for Link YS02001904YS02001907
  
  *********************************************************
  NOTE: The summary statistics displayed in this report are
  based on results found at every computational time step,  
  not just on results from each reporting time step.
  *********************************************************
  
  ****************
  Analysis Options
  ****************
  Flow Units ............... LPS
  Process Models:
    Rainfall/Runoff ........ YES
    RDII ................... NO
    Snowmelt ............... NO
    Groundwater ............ NO
    Flow Routing ........... YES
    Ponding Allowed ........ NO
    Water Quality .......... YES
  Infiltration Method ...... HORTON
  Flow Routing Method ...... DYNWAVE
  Surcharge Method ......... EXTRAN
  Starting Date ............ 08/28/2015 08:00:00
  Ending Date .............. 08/28/2015 15:50:00
  Antecedent Dry Days ...... 8.0
  Report Time Step ......... 00:01:00
  Wet Time Step ............ 00:01:00
  Dry Time Step ............ 00:01:00
  Routing Time Step ........ 5.00 sec
  Variable Time Step ....... YES
  Maximum Trials ........... 8
  Number of Threads ........ 4
  Head Tolerance ........... 0.001500 m
  
  
  **************************        Volume         Depth
  Runoff Quantity Continuity     hectare-m            mm
  **************************     ---------       -------
  Total Precipitation ......         5.556        12.164
  Evaporation Loss .........         0.000         0.000
  Infiltration Loss ........         1.002         2.194
  Surface Runoff ...........         3.688         8.075
  Final Storage ............         0.866         1.897
  Continuity Error (%) .....        -0.019
  
  
  **************************           COD            SS            TN            TP         NH4-N
  Runoff Quality Continuity             kg            kg            kg            kg            kg
  **************************    ----------    ----------    ----------    ----------    ----------
  Initial Buildup ..........     41378.656     70582.865      1804.177       168.684      1032.807
  Surface Buildup ..........        19.273        34.266         2.335         0.213         1.362
  Wet Deposition ...........         0.000         0.000         0.000         0.000         0.000
  Sweeping Removal .........         0.000         0.000         0.000         0.000         0.000
  Infiltration Loss ........        84.022       157.500         1.599         0.111         0.761
  BMP Removal ..............         0.000         0.000         0.000         0.000         0.000
  Surface Runoff ...........      3122.057      5752.125        60.620         4.098        28.771
  Remaining Buildup ........     38190.796     64705.527      1744.271       164.686      1004.628
  Continuity Error (%) .....         0.003         0.003         0.001         0.001         0.001
  
  
  **************************        Volume        Volume
  Flow Routing Continuity        hectare-m      10^6 ltr
  **************************     ---------     ---------
  Dry Weather Inflow .......         0.616         6.165
  Wet Weather Inflow .......         3.687        36.870
  Groundwater Inflow .......         0.000         0.000
  RDII Inflow ..............         0.000         0.000
  External Inflow ..........         0.102         1.024
  External Outflow .........         2.217        22.169
  Flooding Loss ............         1.897        18.972
  Evaporation Loss .........         0.000         0.000
  Exfiltration Loss ........         0.000         0.000
  Initial Stored Volume ....         0.076         0.761
  Final Stored Volume ......         0.595         5.954
  Continuity Error (%) .....        -5.079
  
  
  **************************           COD            SS            TN            TP         NH4-N
  Quality Routing Continuity            kg            kg            kg            kg            kg
  **************************    ----------    ----------    ----------    ----------    ----------
  Dry Weather Inflow .......      1541.147      2465.835       147.950        18.494        92.469
  Wet Weather Inflow .......      3121.323      5750.892        60.604         4.097        28.763
  Groundwater Inflow .......         0.000         0.000         0.000         0.000         0.000
  RDII Inflow ..............         0.000         0.000         0.000         0.000         0.000
  External Inflow ..........       183.412       293.459        17.608         2.201        11.005
  External Outflow .........      2431.289      4178.179       153.453        18.008        92.753
  Flooding Loss ............      1620.487      2970.378        42.662         3.763        22.535
  Exfiltration Loss ........         0.000         0.000         0.000         0.000         0.000
  Mass Reacted .............         0.000         0.000         0.000         0.000         0.000
  Initial Stored Mass ......         0.000         0.000         0.000         0.000         0.000
  Final Stored Mass ........       511.731       880.079        22.753         2.423        13.172
  Continuity Error (%) .....         5.827         5.659         3.225         2.413         2.856
  
  
  *************************
  Highest Continuity Errors
  *************************
  Node JK-storage (-22.08%)
  Node HS02004842 (14.53%)
  Node YS02001884 (10.45%)
  Node WS02006253 (2.76%)
  Node YSB1171 (2.74%)
  
  
  ***************************
  Time-Step Critical Elements
  ***************************
  Link WS02006252WS02006251 (62.19%)
  Link WS02006280WS02006229 (9.16%)
  Link YS02001793JiankangQianchi (6.79%)
  Link WS02004404WS02004405 (5.33%)
  Link WS02006235WS02006234 (2.06%)
  
  
  ********************************
  Highest Flow Instability Indexes
  ********************************
  Link YS02001619YS02001622 (41)
  Link WS02006238WS02006235 (41)
  Link YS02163301YS02001633 (41)
  Link YS02001629YS02163301 (41)
  Link YS02163601YS02164001 (40)
  
  
  *************************
  Routing Time Step Summary
  *************************
  Minimum Time Step           :     0.50 sec
  Average Time Step           :     1.15 sec
  Maximum Time Step           :     5.00 sec
  Percent in Steady State     :    -0.00
  Average Iterations per Step :     4.56
  Percent Not Converging      :    21.86
  
  
  ***************************
  Subcatchment Runoff Summary
  ***************************
  
  ------------------------------------------------------------------------------------------------------------------------------
                            Total      Total      Total      Total     Imperv       Perv      Total       Total     Peak  Runoff
                           Precip      Runon       Evap      Infil     Runoff     Runoff     Runoff      Runoff   Runoff   Coeff
  Subcatchment                 mm         mm         mm         mm         mm         mm         mm    10^6 ltr      LPS
  ------------------------------------------------------------------------------------------------------------------------------
  sub0                      12.16       0.00       0.00       0.65      11.27       0.20      11.47        0.01     1.99   0.943
  sub1                      12.16       0.00       0.00       1.12      10.73       0.22      10.95        0.07    14.96   0.900
  sub2                      12.16       0.00       0.00       4.23       7.58       0.27       7.85        0.07    15.08   0.646
  sub3                      12.16       0.00       0.00       4.29       7.54       0.21       7.75        0.17    34.61   0.637
  sub4                      12.16       0.00       0.00       1.19      10.57       0.14      10.71        0.22    42.34   0.881
  sub5                      12.16       0.00       0.00       0.69      11.21       0.16      11.38        0.13    26.18   0.935
  sub7                      12.16       0.00       0.00       0.88      11.01       0.22      11.22        0.04     7.95   0.923
  sub8                      12.16       0.00       0.00       0.89      11.00       0.21      11.20        0.07    14.89   0.921
  sub9                      12.16       0.00       0.00       0.89      10.99       0.21      11.20        0.05    11.18   0.921
  sub10                     12.16       0.00       0.00       0.79      11.10       0.18      11.28        0.12    25.49   0.928
  sub11                     12.16       0.00       0.00       0.78      11.12       0.19      11.31        0.13    27.35   0.930
  sub12                     12.16       0.00       0.00       1.27      10.53       0.31      10.85        0.09    20.52   0.892
  sub14                     12.16       0.00       0.00       0.89      10.99       0.20      11.20        0.11    22.08   0.920
  sub15                     12.16       0.00       0.00       3.28       8.45       0.37       8.82        0.15    32.49   0.725
  sub16                     12.16       0.00       0.00       3.51       8.11       0.50       8.61        0.09    20.36   0.708
  sub17                     12.16       0.00       0.00       3.41       8.23       0.48       8.71        0.07    16.72   0.716
  sub22                     12.16       0.00       0.00       4.80       6.89       0.43       7.32        0.46   102.62   0.602
  sub23                     12.16       0.00       0.00       4.05       7.62       0.45       8.07        0.38    85.35   0.663
  sub60                     12.16       0.00       0.00       1.42       8.82       0.04       8.86        2.69   336.84   0.729
  sub61                     12.16       0.00       0.00       2.01       8.94       0.06       9.00        2.78   399.45   0.740
  sub62                     12.16       0.00       0.00       0.92       9.73       0.05       9.78        3.01   415.79   0.804
  sub63                     12.16       0.00       0.00       3.46       7.82       0.06       7.88        2.39   361.21   0.648
  sub64                     12.16       0.00       0.00       1.78       8.47       0.04       8.51        2.59   320.97   0.699
  sub65                     12.16       0.00       0.00       1.54       8.61       0.04       8.65        2.66   326.54   0.711
  sub66                     12.16       0.00       0.00       3.49       7.26       0.04       7.30        2.24   290.53   0.600
  sub67                     12.16       0.00       0.00       0.91      10.24       0.07      10.31        3.18   494.23   0.848
  sub68                     12.16       0.00       0.00       1.64       9.40       0.06       9.46        2.91   432.52   0.778
  sub69                     12.16       0.00       0.00       1.73       9.72       0.09       9.82        2.29   383.95   0.807
  sub70                     12.16      10.02       0.00       6.98      13.09       0.56      13.65        3.12   394.93   0.615
  sub71                     12.16       0.00       0.00       0.93       9.48       0.05       9.53        2.25   296.34   0.783
  sub72                     12.16       0.00       0.00       0.83       7.62       0.02       7.64        1.56   151.13   0.628
  1                         12.16      13.29       0.00       1.37      14.63       3.94      18.57        4.36   399.24   0.730
  2                         12.16       0.00       0.00       3.02       2.89       1.65       4.55        1.82   245.52   0.374
  
  
  ****************************
  Subcatchment Washoff Summary
  ****************************
  
  ------------------------------------------------------------------------------------------
                                 COD            SS            TN            TP         NH4-N
  Subcatchment                    kg            kg            kg            kg            kg
  ------------------------------------------------------------------------------------------
  sub0                         2.176         4.147         0.037         0.003         0.018
  sub1                         9.268        18.138         0.173         0.012         0.083
  sub2                         5.563        10.570         0.119         0.008         0.054
  sub3                        13.747        25.918         0.288         0.019         0.132
  sub4                        21.530        42.606         0.429         0.026         0.205
  sub5                        21.300        41.103         0.378         0.029         0.183
  sub7                         4.748         9.424         0.090         0.006         0.043
  sub8                         7.142        14.500         0.143         0.008         0.069
  sub9                         6.100        12.212         0.118         0.007         0.057
  sub10                       17.532        34.266         0.321         0.023         0.155
  sub11                       17.086        33.770         0.320         0.022         0.154
  sub12                       14.392        27.890         0.260         0.019         0.125
  sub14                       13.021        25.823         0.247         0.016         0.119
  sub15                       16.182        30.744         0.313         0.023         0.146
  sub16                       10.318        19.555         0.197         0.015         0.092
  sub17                        9.471        17.789         0.175         0.014         0.082
  sub22                       48.821        90.813         0.932         0.070         0.434
  sub23                       29.138        56.181         0.627         0.041         0.287
  sub60                      203.702       376.193         4.083         0.248         1.956
  sub61                      251.299       461.578         4.699         0.320         2.261
  sub62                      262.761       491.325         5.157         0.324         2.474
  sub63                      185.046       334.593         3.739         0.261         1.731
  sub64                      253.866       452.093         4.687         0.339         2.235
  sub65                      260.104       465.190         4.834         0.344         2.309
  sub66                      146.558       263.077         3.037         0.197         1.417
  sub67                      388.204       718.565         6.963         0.510         3.363
  sub68                      276.713       513.392         5.318         0.356         2.539
  sub69                      247.675       464.012         4.658         0.325         2.225
  sub70                      413.253       778.338         8.287         0.572         3.877
  sub71                      173.740       327.841         3.597         0.206         1.720
  sub72                      136.327       239.314         2.558         0.174         1.230
  1                          280.717       531.705         5.751         0.398         2.660
  2                           35.484        61.811         1.030         0.062         0.437
  ------------------------------------------------------------------------------------------
  System                    3782.985      6994.474        73.565         4.996        34.873
  
  
  ******************
  Node Depth Summary
  ******************
  
  ---------------------------------------------------------------------------------
                                 Average  Maximum  Maximum  Time of Max    Reported
                                   Depth    Depth      HGL   Occurrence   Max Depth
  Node                 Type       Meters   Meters   Meters  days hr:min      Meters
  ---------------------------------------------------------------------------------
  WS02001211           JUNCTION     0.78     0.83     5.67     0  03:08        0.83
  WS02001212           JUNCTION     0.49     0.56     5.62     0  03:07        0.56
  WS02001213           JUNCTION     0.74     0.83     5.59     0  03:06        0.83
  WS02003069           JUNCTION     0.55     0.69     5.27     0  03:06        0.69
  WS02003072           JUNCTION     0.61     0.73     5.10     0  03:06        0.73
  WS02003073           JUNCTION     0.37     0.46     4.52     0  03:07        0.46
  WS02003060           JUNCTION     0.49     0.60     5.54     0  03:05        0.60
  WS02003066           JUNCTION     0.27     0.36     5.92     0  03:05        0.36
  WS02003059           JUNCTION     0.79     0.88     5.57     0  03:06        0.88
  WS02003067           JUNCTION     0.64     0.79     6.11     0  03:04        0.79
  WS02004401           JUNCTION     0.79     1.14     7.14     0  03:02        1.13
  WS02004402           JUNCTION     0.82     1.14     7.10     0  03:03        1.13
  WS02004403           JUNCTION     0.83     1.12     7.05     0  03:03        1.12
  WS02004404           JUNCTION     0.90     1.18     7.03     0  03:03        1.17
  WS02004406           JUNCTION     0.90     1.12     6.95     0  03:02        1.12
  WS02004409           JUNCTION     0.60     0.87     6.64     0  03:04        0.87
  WS02004410           JUNCTION     0.62     0.87     6.59     0  03:04        0.87
  WS02004411           JUNCTION     0.63     0.86     6.54     0  03:04        0.86
  WS02004412           JUNCTION     0.63     0.85     6.49     0  03:04        0.85
  WS02004413           JUNCTION     0.78     0.98     6.45     0  03:04        0.98
  WS02004405           JUNCTION     0.90     1.16     7.01     0  03:02        1.15
  WS02006109           JUNCTION     0.90     1.31     7.93     0  03:02        1.31
  WS02006110           JUNCTION     0.86     1.15     7.74     0  03:02        1.14
  WS02006111           JUNCTION     0.28     0.65     7.36     0  03:03        0.65
  WS02006112           JUNCTION     0.99     1.42     7.30     0  03:02        1.41
  WS02006113           JUNCTION     0.42     0.65     7.54     0  03:03        0.65
  WS02006115           JUNCTION     0.70     1.09     7.23     0  03:03        1.09
  WS02006116           JUNCTION     0.77     1.14     7.18     0  03:03        1.14
  WS02006230           JUNCTION     0.97     1.52     8.26     0  03:02        1.51
  WS02006231           JUNCTION     0.70     1.22     8.34     0  03:02        1.21
  WS02006232           JUNCTION     0.86     1.36     8.40     0  03:02        1.35
  WS02006234           JUNCTION     0.83     1.32     8.48     0  03:02        1.31
  WS02006235           JUNCTION     0.89     1.37     8.53     0  03:01        1.35
  WS02006238           JUNCTION     0.91     1.39     8.54     0  03:02        1.38
  WS02006240           JUNCTION     0.83     1.28     8.57     0  03:02        1.28
  WS02006242           JUNCTION     0.89     1.33     8.60     0  03:03        1.32
  WS02006243           JUNCTION     0.78     1.28     8.70     0  01:46        1.20
  WS02006245           JUNCTION     0.75     1.17     8.65     0  03:02        1.16
  WS02006247           JUNCTION     0.76     1.17     8.67     0  02:58        1.16
  WS02006248           JUNCTION     0.70     1.10     8.69     0  01:46        1.09
  WS02006249           JUNCTION     0.71     1.09     8.69     0  01:46        1.09
  WS02006239           JUNCTION     0.88     1.35     8.56     0  03:02        1.34
  WS02006251           JUNCTION     0.70     1.42     9.09     0  01:47        1.20
  WS02006252           JUNCTION     0.45     0.98     9.22     0  01:47        0.73
  WS02006253           JUNCTION     0.73     1.70     9.34     0  01:47        1.24
  WS02006256           JUNCTION     2.03     2.35     9.28     0  00:00        2.35
  WS02004138           JUNCTION     0.19     0.20     7.45     0  00:00        0.19
  WS02004139           JUNCTION     0.72     0.77     5.68     0  03:08        0.77
  WS02004407           JUNCTION     0.27     0.37     6.68     0  03:03        0.37
  WS02006228           JUNCTION     0.93     1.44     8.09     0  03:02        1.43
  WS02006229           JUNCTION     0.93     1.49     8.18     0  03:02        1.48
  WS02006280           JUNCTION     0.07     0.20     8.47     0  03:02        0.20
  WS02006284           JUNCTION     0.37     0.56     8.96     0  03:02        0.56
  WS02006287           JUNCTION     0.10     0.30     9.25     0  03:01        0.30
  WSF200               JUNCTION     0.27     0.40     5.64     0  03:05        0.40
  HS02004901           JUNCTION     0.12     0.29    10.12     0  03:01        0.29
  HS02004881           JUNCTION     0.01     0.04     9.07     0  03:01        0.04
  HS02004876           JUNCTION     0.04     0.12     9.15     0  03:01        0.12
  HS02004870           JUNCTION     0.01     0.07     9.35     0  03:01        0.07
  HS02004862           JUNCTION     0.02     0.08     9.46     0  03:01        0.08
  HS02004856           JUNCTION     0.08     0.13     9.55     0  03:01        0.13
  HS02004852           JUNCTION     0.01     0.05     9.56     0  03:01        0.05
  HS02004848           JUNCTION     0.01     0.05     9.65     0  03:01        0.05
  HS02004842           JUNCTION     0.33     0.38     9.65     0  03:01        0.38
  HS02004837           JUNCTION     0.03     0.07     9.65     0  03:01        0.07
  HS02004830           JUNCTION     0.04     0.08     9.55     0  03:01        0.08
  HS02004824           JUNCTION     0.02     0.06     9.47     0  03:01        0.06
  HS02004817           JUNCTION     0.44     0.61     9.45     0  03:01        0.61
  HS02004807           JUNCTION     0.13     0.28     9.45     0  03:01        0.28
  HS02004802           JUNCTION     0.16     0.31     9.44     0  03:01        0.31
  HS02004799           JUNCTION     0.12     0.35     9.56     0  03:01        0.35
  HS02004792           JUNCTION     0.03     0.15     9.67     0  03:01        0.15
  HS02004788           JUNCTION     0.03     0.11    10.01     0  03:01        0.11
  HS02004785           JUNCTION     0.05     0.18    10.09     0  03:01        0.18
  HS02004777           JUNCTION     0.15     0.31    10.11     0  03:01        0.31
  HS02004770           JUNCTION     0.12     0.29    10.12     0  03:01        0.29
  HS02004480           JUNCTION     0.08     0.28     9.52     0  03:01        0.28
  HS02004479           JUNCTION     0.12     0.32     9.52     0  03:01        0.32
  HS02004478           JUNCTION     0.06     0.20     9.42     0  03:01        0.20
  YS02001745           JUNCTION     0.70     0.88     8.39     0  03:16        0.87
  YS02001748           JUNCTION     1.09     1.43     8.50     0  02:36        1.31
  YS02001751           JUNCTION     1.28     1.53     8.41     0  03:19        1.52
  YS02001754           JUNCTION     1.53     1.81     8.42     0  03:49        1.80
  YS02001762           JUNCTION     1.74     2.03     8.43     0  03:32        2.01
  YS02001765           JUNCTION     1.69     1.97     8.42     0  03:32        1.96
  YS02001767           JUNCTION     1.65     1.93     8.42     0  03:48        1.91
  YS02001770           JUNCTION     1.65     1.91     8.40     0  03:33        1.89
  YS02001774           JUNCTION     1.72     1.97     8.39     0  03:10        1.96
  YS02001779           JUNCTION     1.46     1.68     8.37     0  02:44        1.68
  YS02001882           JUNCTION     0.50     1.62     8.34     0  03:00        1.61
  YS02001884           JUNCTION     0.60     1.72     8.34     0  03:00        1.71
  YS02001759           JUNCTION     1.77     2.06     8.43     0  03:48        2.05
  YS02001887           JUNCTION     0.67     1.80     8.34     0  03:00        1.79
  YS02001890           JUNCTION     0.70     1.81     8.32     0  02:57        1.81
  YS02001898           JUNCTION     0.47     1.56     8.29     0  03:00        1.55
  YS02001901           JUNCTION     0.59     1.67     8.28     0  03:01        1.67
  YS02001904           JUNCTION     0.57     1.63     8.26     0  03:00        1.63
  YS02001907           JUNCTION     0.90     1.96     8.25     0  02:46        1.96
  YS02001910           JUNCTION     0.69     1.77     8.28     0  02:48        1.77
  YS02001915           JUNCTION     0.49     1.58     8.29     0  02:48        1.57
  YS02001918           JUNCTION     0.23     1.24     8.30     0  02:48        1.23
  YS02001619           JUNCTION     1.25     1.49     8.42     0  02:36        1.47
  YS02001629           JUNCTION     1.60     1.85     8.40     0  02:44        1.84
  YS02001641           JUNCTION     1.70     1.94     8.37     0  02:44        1.93
  YS02001644           JUNCTION     1.70     1.92     8.35     0  02:42        1.92
  YS02001652           JUNCTION     1.55     2.16     8.76     0  03:46        1.96
  YS02001655           JUNCTION     1.31     2.18     9.03     0  03:46        1.79
  YS02001920           JUNCTION     0.33     1.31     8.31     0  02:48        1.30
  YS02001923           JUNCTION     0.18     1.06     8.32     0  02:48        1.05
  YS02001926           JUNCTION     0.25     0.88     8.32     0  02:48        0.87
  YS02001929           JUNCTION     0.14     0.63     8.33     0  02:48        0.63
  YS02001658           JUNCTION     1.04     2.00     9.14     0  03:46        1.51
  YS02001661           JUNCTION     0.81     2.28     9.68     0  03:46        1.63
  YS02001664           JUNCTION     0.36     0.57     8.50     0  03:21        0.56
  YS02001622           JUNCTION     1.27     1.51     8.41     0  02:36        1.49
  YS02001633           JUNCTION     1.69     1.95     8.40     0  02:44        1.94
  YS02001649           JUNCTION     1.74     2.05     8.44     0  02:51        2.05
  YS02001757           JUNCTION     1.87     2.16     8.42     0  03:53        2.16
  YS02001895           JUNCTION     0.46     1.56     8.31     0  03:00        1.55
  YS02001625           JUNCTION     1.55     1.78     8.38     0  02:36        1.78
  YS02163301           JUNCTION     1.63     1.88     8.40     0  02:45        1.88
  YS02163601           JUNCTION     1.74     2.00     8.39     0  02:44        1.98
  YS02164001           JUNCTION     1.68     1.93     8.38     0  02:44        1.92
  YS02001647           JUNCTION     1.53     1.80     8.41     0  03:35        1.79
  YSB1154              JUNCTION     0.26     0.47     9.52     0  03:01        0.47
  YSB6556              JUNCTION     0.15     0.35     9.52     0  03:01        0.35
  YSB1174              JUNCTION     0.21     0.41     9.52     0  03:01        0.41
  YSB1171              JUNCTION     0.41     0.62     9.52     0  03:01        0.62
  YS02006553           JUNCTION     0.90     1.97     8.25     0  03:00        1.96
  YS02006561           JUNCTION     0.27     1.07     7.73     0  03:01        1.06
  YS02006556           JUNCTION     0.87     1.92     8.23     0  02:57        1.92
  YS02006558           JUNCTION     0.91     1.96     8.23     0  02:59        1.95
  YS02001783           JUNCTION     0.47     2.19     8.33     0  02:26        1.44
  YS02001784           JUNCTION     0.49     1.87     7.94     0  02:26        1.38
  YS02001786           JUNCTION     0.42     1.62     7.65     0  02:26        1.22
  YS02001788           JUNCTION     0.34     1.35     7.33     0  02:26        1.08
  YS02001790           JUNCTION     0.43     1.96     7.60     0  02:25        1.24
  YS02001791           JUNCTION     0.35     1.94     7.41     0  02:25        1.23
  YS02001793           JUNCTION     0.40     3.60     8.43     0  02:24        1.79
  WSC                  OUTFALL      0.37     0.46     1.13     0  03:07        0.46
  JK-storage           STORAGE      1.41     5.80     6.60     0  02:26        5.80
  CC-storage           STORAGE      1.10     1.37     8.37     0  04:42        1.37
  XR-storage           STORAGE      6.49     7.72     5.72     0  02:57        7.72
  
  
  *******************
  Node Inflow Summary
  *******************
  
  -------------------------------------------------------------------------------------------------
                                  Maximum  Maximum                  Lateral       Total        Flow
                                  Lateral    Total  Time of Max      Inflow      Inflow     Balance
                                   Inflow   Inflow   Occurrence      Volume      Volume       Error
  Node                 Type           LPS      LPS  days hr:min    10^6 ltr    10^6 ltr     Percent
  -------------------------------------------------------------------------------------------------
  WS02001211           JUNCTION      7.35   389.60     0  04:38       0.207        10.1       0.405
  WS02001212           JUNCTION      0.00   391.75     0  04:38           0        10.1       0.247
  WS02001213           JUNCTION      0.00   393.76     0  04:37           0        10.1       0.293
  WS02003069           JUNCTION      0.32  1232.23     0  03:06     0.00902        22.3       0.173
  WS02003072           JUNCTION      0.00  1232.13     0  03:06           0        22.2       0.203
  WS02003073           JUNCTION      1.82  1233.93     0  03:06      0.0513        22.2       0.236
  WS02003060           JUNCTION     16.53  1231.94     0  03:05       0.466        22.3       0.162
  WS02003066           JUNCTION      0.00   829.95     0  03:05           0        11.8       0.046
  WS02003059           JUNCTION      0.00   396.86     0  04:37           0          10       0.411
  WS02003067           JUNCTION      0.00   829.84     0  03:04           0        11.8       0.090
  WS02004401           JUNCTION      0.00   831.39     0  03:03           0        12.1       0.205
  WS02004402           JUNCTION      0.00   832.88     0  03:02           0        12.1       0.189
  WS02004403           JUNCTION      0.00   831.72     0  03:03           0        12.1       0.172
  WS02004404           JUNCTION      0.16   831.64     0  03:03     0.00457          12       0.123
  WS02004406           JUNCTION      0.00   831.28     0  03:03           0          12       0.305
  WS02004409           JUNCTION      0.00   830.70     0  03:03           0          12       0.170
  WS02004410           JUNCTION      0.00   830.16     0  03:04           0        11.9       0.189
  WS02004411           JUNCTION      0.00   829.95     0  03:04           0        11.9       0.190
  WS02004412           JUNCTION      0.00   829.85     0  03:04           0        11.9       0.201
  WS02004413           JUNCTION      0.00   829.82     0  03:04           0        11.9       0.291
  WS02004405           JUNCTION      0.04   832.72     0  03:03     0.00107          12       0.191
  WS02006109           JUNCTION      1.23   818.18     0  03:02      0.0347        12.2       0.176
  WS02006110           JUNCTION      0.00   818.37     0  03:02           0        12.1       0.181
  WS02006111           JUNCTION      0.00   817.44     0  03:02           0        12.1       0.038
  WS02006112           JUNCTION     16.72   831.14     0  03:03      0.0747        12.2       0.250
  WS02006113           JUNCTION      0.00   818.10     0  03:02           0        12.1       0.107
  WS02006115           JUNCTION      0.00   831.00     0  03:03           0        12.2       0.204
  WS02006116           JUNCTION      0.00   831.09     0  03:02           0        12.1       0.193
  WS02006230           JUNCTION     10.28   532.87     0  06:46        0.29          10       0.156
  WS02006231           JUNCTION      0.00   522.55     0  06:48           0        9.73       0.148
  WS02006232           JUNCTION      0.00   522.66     0  06:48           0        9.75       0.189
  WS02006234           JUNCTION      0.00   523.16     0  06:40           0        9.76       0.103
  WS02006235           JUNCTION      0.00   524.04     0  06:46           0        9.81       0.136
  WS02006238           JUNCTION      0.00   418.71     0  07:30           0         5.9       0.166
  WS02006240           JUNCTION      0.00   417.01     0  07:30           0        5.89       0.284
  WS02006242           JUNCTION      0.00   416.88     0  07:30           0         5.9       0.321
  WS02006243           JUNCTION      0.00   416.71     0  07:30           0         5.9       0.243
  WS02006245           JUNCTION      0.00   416.84     0  07:30           0        5.91       0.219
  WS02006247           JUNCTION      0.00   417.31     0  07:30           0        5.93       0.194
  WS02006248           JUNCTION      0.00   418.28     0  07:30           0        5.94       0.154
  WS02006249           JUNCTION      0.00   486.26     0  03:01           0        7.29       0.224
  WS02006239           JUNCTION      0.00   417.96     0  07:30           0         5.9       0.247
  WS02006251           JUNCTION      0.08   487.41     0  03:01     0.00217        7.35       0.235
  WS02006252           JUNCTION      0.00   400.00     0  01:45           0         6.9       0.009
  WS02006253           JUNCTION      1.99   215.59     0  01:47     0.00928       0.467       2.843
  WS02006256           JUNCTION      0.00   983.00     0  00:00           0        11.2      -0.007
  WS02004138           JUNCTION      0.00   380.00     0  00:00           0        9.98       0.063
  WS02004139           JUNCTION      0.32   396.51     0  00:00     0.00905        9.98       0.460
  WS02004407           JUNCTION      0.00   831.44     0  03:03           0          12       0.076
  WS02006228           JUNCTION      0.00   817.05     0  03:02           0        12.1       0.141
  WS02006229           JUNCTION      0.00   817.28     0  03:02           0        12.2       0.108
  WS02006280           JUNCTION      0.00   413.62     0  03:02           0        2.17       0.003
  WS02006284           JUNCTION      0.10   413.56     0  03:02      0.0027        2.17       0.041
  WS02006287           JUNCTION      0.00   413.22     0  03:01           0        2.17       0.033
  WSF200               JUNCTION      0.00   829.99     0  03:05           0        11.8       0.045
  HS02004901           JUNCTION     20.36    20.36     0  03:01      0.0902      0.0904       1.991
  HS02004881           JUNCTION      7.95    84.19     0  03:01      0.0378        0.41       0.078
  HS02004876           JUNCTION     14.96    76.75     0  03:01      0.0728       0.373       0.148
  HS02004870           JUNCTION     14.89    62.15     0  03:01      0.0716         0.3       0.037
  HS02004862           JUNCTION     15.28    47.68     0  03:01      0.0788       0.229       0.077
  HS02004856           JUNCTION     11.18    32.72     0  03:01      0.0539       0.152       0.962
  HS02004852           JUNCTION      0.00    21.94     0  03:01           0      0.0979       0.059
  HS02004848           JUNCTION     34.61    34.61     0  03:01       0.174       0.174       0.028
  HS02004842           JUNCTION      0.00    12.41     0  03:01           0      0.0895      16.997
  HS02004837           JUNCTION     31.84    43.95     0  03:01       0.303        0.38       0.215
  HS02004830           JUNCTION      0.15    43.86     0  03:01     0.00423        0.37       0.334
  HS02004824           JUNCTION     42.39    85.90     0  03:01       0.225       0.594       0.091
  HS02004817           JUNCTION      0.60    86.28     0  03:01      0.0169        0.61       2.809
  HS02004807           JUNCTION     27.35   112.31     0  03:01       0.131       0.725       0.605
  HS02004802           JUNCTION      0.00   111.36     0  03:01           0       0.723       0.544
  HS02004799           JUNCTION     22.08   258.92     0  03:01       0.107        1.24       0.223
  HS02004792           JUNCTION    102.90   238.01     0  03:01        0.47        1.14       0.036
  HS02004788           JUNCTION     34.16   135.94     0  03:01       0.199       0.669       0.059
  HS02004785           JUNCTION      0.15   103.52     0  03:01     0.00423       0.471       0.106
  HS02004777           JUNCTION      0.03   104.16     0  03:01    0.000846       0.472       1.115
  HS02004770           JUNCTION     85.35   105.11     0  03:01       0.385       0.473       0.659
  HS02004480           JUNCTION      0.00   302.44     0  03:01           0        1.46       0.077
  HS02004479           JUNCTION      0.00    44.91     0  03:02           0       0.232       0.317
  HS02004478           JUNCTION      0.00   413.08     0  03:01           0        2.17       0.014
  YS02001745           JUNCTION    336.84   336.84     0  03:01        2.69        2.69       0.311
  YS02001748           JUNCTION      0.04   539.48     0  02:36     0.00127        2.68       0.787
  YS02001751           JUNCTION      0.01   347.49     0  03:01     0.00031        2.66       0.892
  YS02001754           JUNCTION      0.26   347.93     0  03:01     0.00733        2.64       0.945
  YS02001762           JUNCTION      0.00   349.83     0  02:50           0        2.02       1.051
  YS02001765           JUNCTION      0.00   350.50     0  02:50           0        2.02       1.211
  YS02001767           JUNCTION      0.54   351.40     0  02:50      0.0151        2.05       1.765
  YS02001770           JUNCTION    415.94   415.94     0  03:01        3.01        3.02       1.051
  YS02001774           JUNCTION      0.00   274.41     0  03:01           0       0.966       2.627
  YS02001779           JUNCTION      0.01   275.23     0  03:01    0.000141       0.933       1.695
  YS02001882           JUNCTION      0.00    33.08     0  02:28           0      0.0212      12.214
  YS02001884           JUNCTION      0.00    61.66     0  02:28           0      0.0592      11.671
  YS02001759           JUNCTION    399.49   690.38     0  02:50        2.78        4.76       0.480
  YS02001887           JUNCTION    494.68   494.68     0  03:01        3.19        3.23       0.268
  YS02001890           JUNCTION      0.00   495.28     0  03:00           0        3.18       0.292
  YS02001898           JUNCTION      0.00   495.36     0  03:01           0        3.16       0.100
  YS02001901           JUNCTION      0.00   495.31     0  03:01           0        3.16       0.222
  YS02001904           JUNCTION      0.00   495.61     0  03:01           0        3.16       0.205
  YS02001907           JUNCTION      0.00   948.61     0  03:01           0        7.02       0.348
  YS02001910           JUNCTION      0.00   455.52     0  03:01           0        3.87       0.306
  YS02001915           JUNCTION    296.36   454.99     0  03:01        2.25        3.89       0.163
  YS02001918           JUNCTION      0.00   211.02     0  03:30           0        1.64       0.124
  YS02001619           JUNCTION    290.53   290.53     0  03:01        2.24        2.24       0.551
  YS02001629           JUNCTION      0.00   214.79     0  02:42           0        1.73       1.685
  YS02001641           JUNCTION      0.00   453.44     0  02:42           0        4.29       0.482
  YS02001644           JUNCTION    321.01   977.11     0  03:17        2.59        8.75       0.299
  YS02001652           JUNCTION      0.00   399.29     0  03:02           0        2.36       0.959
  YS02001655           JUNCTION      0.15   397.90     0  03:02     0.00434        2.38       1.070
  YS02001920           JUNCTION      2.87   189.14     0  03:30      0.0809        1.64       0.181
  YS02001923           JUNCTION      0.04   167.24     0  02:49     0.00106        1.55       0.058
  YS02001926           JUNCTION      0.05   154.51     0  03:01     0.00147        1.56       0.210
  YS02001929           JUNCTION    151.13   151.13     0  03:01        1.56        1.56       0.037
  YS02001658           JUNCTION      0.00   411.09     0  02:34           0         2.4       1.011
  YS02001661           JUNCTION      0.00   678.23     0  02:49           0        2.86      -0.807
  YS02001664           JUNCTION    361.21   361.21     0  03:01        2.38        2.86       0.161
  YS02001622           JUNCTION      0.00   291.38     0  03:01           0        2.22       1.433
  YS02001633           JUNCTION    326.74   452.57     0  02:42        2.66        4.35       0.733
  YS02001649           JUNCTION      0.00   966.44     0  02:43           0         5.5       0.670
  YS02001757           JUNCTION      0.00  1830.00     0  02:44           0        10.9       0.856
  YS02001895           JUNCTION      0.00   494.77     0  03:00           0        3.17       0.164
  YS02001625           JUNCTION      0.00   290.35     0  03:01           0        2.19       1.785
  YS02163301           JUNCTION      0.00   216.03     0  02:42           0        1.71       1.399
  YS02163601           JUNCTION      0.11   452.80     0  02:42      0.0031        4.32       0.700
  YS02164001           JUNCTION      0.00   453.28     0  02:42           0         4.3       0.457
  YS02001647           JUNCTION      0.00   687.68     0  02:43           0        4.27       0.658
  YSB1154              JUNCTION     26.18    26.18     0  03:01       0.129        0.13       1.131
  YSB6556              JUNCTION      0.00    25.82     0  03:01           0        0.13       0.970
  YSB1174              JUNCTION     20.52    20.52     0  03:01      0.0948      0.0953       1.369
  YSB1171              JUNCTION      0.00    45.30     0  03:01           0       0.231       2.821
  YS02006553           JUNCTION      0.00   703.33     0  03:31           0         6.6       0.231
  YS02006561           JUNCTION      0.00  1023.46     0  02:47           0        9.47       0.007
  YS02006556           JUNCTION      0.00   703.98     0  03:31           0         6.6       0.173
  YS02006558           JUNCTION    433.40  1024.48     0  02:47        2.93        9.51       0.058
  YS02001783           JUNCTION      0.00  1023.60     0  02:47           0        9.47       0.023
  YS02001784           JUNCTION      1.06  1024.25     0  02:47      0.0299         9.5       0.038
  YS02001786           JUNCTION      0.06  1024.46     0  02:47     0.00159         9.5       0.037
  YS02001788           JUNCTION      0.07  1024.45     0  02:47       0.002         9.5       0.024
  YS02001790           JUNCTION      0.15  1024.94     0  02:47     0.00437         9.5       0.019
  YS02001791           JUNCTION      0.00  1024.32     0  02:47           0         9.5       0.015
  YS02001793           JUNCTION      0.00  1024.69     0  02:47           0         9.5      -0.013
  WSC                  OUTFALL       0.00  1233.89     0  03:07           0        22.2       0.000
  JK-storage           STORAGE       0.00  1024.73     0  02:47           0        9.65     -18.085
  CC-storage           STORAGE       0.00  1831.60     0  02:44           0        9.97      -0.236
  XR-storage           STORAGE     844.76   844.76     0  03:01        11.8        12.4      -0.003
  
  
  **********************
  Node Surcharge Summary
  **********************
  
  Surcharging occurs when water rises above the top of the highest conduit.
  ---------------------------------------------------------------------
                                               Max. Height   Min. Depth
                                   Hours       Above Crown    Below Rim
  Node                 Type      Surcharged         Meters       Meters
  ---------------------------------------------------------------------
  WS02004401           JUNCTION        1.18          0.137        1.523
  WS02004402           JUNCTION        1.35          0.138        1.602
  WS02004403           JUNCTION        1.40          0.123        1.907
  WS02004404           JUNCTION        1.81          0.178        2.602
  WS02004406           JUNCTION        1.62          0.118        2.332
  WS02004405           JUNCTION        1.70          0.156        2.644
  WS02006109           JUNCTION        5.70          0.491        1.329
  WS02006110           JUNCTION        3.16          0.244        1.606
  WS02006112           JUNCTION        3.59          0.417        1.263
  WS02006115           JUNCTION        0.56          0.079        2.171
  WS02006116           JUNCTION        0.62          0.085        2.205
  WS02006230           JUNCTION        3.00          0.438        1.132
  WS02006231           JUNCTION        3.49          0.511        1.019
  WS02006232           JUNCTION        5.67          0.661        0.819
  WS02006234           JUNCTION        5.42          0.599        0.641
  WS02006235           JUNCTION        5.63          0.660        0.630
  WS02006238           JUNCTION        5.65          0.672        0.758
  WS02006240           JUNCTION        5.41          0.570        0.820
  WS02006242           JUNCTION        5.60          0.604        0.216
  WS02006243           JUNCTION        4.30          0.569        0.201
  WS02006245           JUNCTION        4.06          0.458        0.392
  WS02006247           JUNCTION        4.07          0.462        0.298
  WS02006248           JUNCTION        3.81          0.380        0.000
  WS02006249           JUNCTION        3.87          0.390        0.000
  WS02006239           JUNCTION        5.61          0.607        0.683
  WS02006251           JUNCTION        2.87          0.386        0.794
  WS02006252           JUNCTION        4.06          0.582        0.518
  WS02006253           JUNCTION        2.91          0.658        1.822
  WS02006256           JUNCTION        7.22          2.050        0.000
  WS02006228           JUNCTION        5.69          0.607        1.593
  YS02001748           JUNCTION        5.01          0.348        0.842
  YS02001751           JUNCTION        5.32          0.527        0.673
  YS02001754           JUNCTION        5.47          0.761        0.389
  YS02001762           JUNCTION        5.86          1.029        0.121
  YS02001765           JUNCTION        5.83          0.974        0.126
  YS02001767           JUNCTION        5.66          0.928        0.102
  YS02001770           JUNCTION        5.63          0.877        0.043
  YS02001774           JUNCTION        5.85          0.970        0.080
  YS02001779           JUNCTION        5.47          0.680        0.000
  YS02001882           JUNCTION        0.93          0.619        0.211
  YS02001884           JUNCTION        0.96          0.660        0.210
  YS02001759           JUNCTION        5.89          1.062        0.148
  YS02001887           JUNCTION        1.03          0.749        0.201
  YS02001890           JUNCTION        1.06          0.760        0.000
  YS02001898           JUNCTION        0.89          0.528        0.212
  YS02001901           JUNCTION        1.00          0.674        0.196
  YS02001904           JUNCTION        0.97          0.635        0.215
  YS02001907           JUNCTION        1.75          0.950        0.000
  YS02001910           JUNCTION        1.11          0.771        0.329
  YS02001915           JUNCTION        0.92          0.575        0.425
  YS02001918           JUNCTION        0.70          0.236        0.574
  YS02001619           JUNCTION        5.35          0.493        0.117
  YS02001629           JUNCTION        5.35          0.466        0.004
  YS02001641           JUNCTION        5.84          0.936        0.164
  YS02001644           JUNCTION        5.84          0.920        0.000
  YS02001652           JUNCTION        5.59          1.130        0.000
  YS02001655           JUNCTION        5.37          1.176        0.024
  YS02001920           JUNCTION        0.74          0.305        0.835
  YS02001658           JUNCTION        5.09          0.997        0.303
  YS02001661           JUNCTION        0.22          1.206        0.184
  YS02001622           JUNCTION        5.38          0.508        0.112
  YS02001633           JUNCTION        5.82          0.930        0.130
  YS02001649           JUNCTION        5.87          1.050        0.000
  YS02001757           JUNCTION        5.97          1.163        0.047
  YS02001895           JUNCTION        0.91          0.563        0.187
  YS02001625           JUNCTION        5.60          0.780        0.000
  YS02163301           JUNCTION        5.67          0.884        0.146
  YS02163601           JUNCTION        5.87          0.996        0.084
  YS02164001           JUNCTION        5.83          0.925        0.175
  YS02001647           JUNCTION        5.59          0.800        0.100
  YS02006553           JUNCTION        1.85          0.965        0.225
  YS02006561           JUNCTION        0.74          0.267        0.883
  YS02006556           JUNCTION        1.31          0.881        0.469
  YS02006558           JUNCTION        1.29          0.863        0.537
  YS02001783           JUNCTION        1.18          1.390        0.210
  YS02001784           JUNCTION        1.16          1.074        0.416
  YS02001786           JUNCTION        1.10          0.822        0.608
  YS02001788           JUNCTION        1.05          0.553        0.927
  YS02001790           JUNCTION        1.36          1.157        0.000
  YS02001791           JUNCTION        1.39          1.142        0.778
  YS02001793           JUNCTION        1.55          2.600        0.000
  
  
  *********************
  Node Flooding Summary
  *********************
  
  Flooding refers to all water that overflows a node, whether it ponds or not.
  --------------------------------------------------------------------------
                                                             Total   Maximum
                                 Maximum   Time of Max       Flood    Ponded
                        Hours       Rate    Occurrence      Volume     Depth
  Node                 Flooded       LPS   days hr:min    10^6 ltr    Meters
  --------------------------------------------------------------------------
  WS02006248              0.01     49.42      0  01:46       0.000     0.000
  WS02006249              2.80    264.50      0  03:02       1.338     0.000
  WS02006256              4.69    978.40      0  00:00       7.249     0.000
  YS02001779              2.45    275.05      0  03:01       0.911     0.000
  YS02001890              0.01      0.69      0  02:59       0.000     0.000
  YS02001907              0.55    399.90      0  03:01       0.410     0.000
  YS02001644              3.87    976.41      0  03:17       6.348     0.000
  YS02001652              0.01      4.23      0  03:46       0.000     0.000
  YS02001649              0.04     30.84      0  03:46       0.001     0.000
  YS02001625              1.06    235.39      0  03:01       0.423     0.000
  YS02001790              0.01    218.18      0  02:25       0.000     0.000
  YS02001793              0.01    418.43      0  02:24       0.000     0.000
  JK-storage              0.35    708.16      0  02:30       0.473     0.000
  XR-storage              3.02    464.65      0  03:01       1.818     0.000
  
  
  **********************
  Storage Volume Summary
  **********************
  
  --------------------------------------------------------------------------------------------------
                         Average     Avg  Evap Exfil       Maximum     Max    Time of Max    Maximum
                          Volume    Pcnt  Pcnt  Pcnt        Volume    Pcnt     Occurrence    Outflow
  Storage Unit           1000 m3    Full  Loss  Loss       1000 m3    Full    days hr:min        LPS
  --------------------------------------------------------------------------------------------------
  JK-storage               0.071      24     0     0         0.291     100       0  02:26     983.00
  CC-storage               3.064      20     0     0         3.831      24       0  04:42     400.00
  XR-storage               0.778      84     0     0         0.926     100       0  02:57     380.00
  
  
  ***********************
  Outfall Loading Summary
  ***********************
  
  ---------------------------------------------------------------------------------------------------------------------------------
                         Flow       Avg       Max       Total         Total         Total         Total         Total         Total
                         Freq      Flow      Flow      Volume           COD            SS            TN            TP         NH4-N
  Outfall Node           Pcnt       LPS       LPS    10^6 ltr            kg            kg            kg            kg            kg
  ---------------------------------------------------------------------------------------------------------------------------------
  WSC                   99.98    863.65   1233.89      22.169      2431.433      4178.421       153.464        18.009        92.760
  ---------------------------------------------------------------------------------------------------------------------------------
  System                99.98    863.65   1233.89      22.169      2431.433      4178.421       153.464        18.009        92.760
  
  
  ********************
  Link Flow Summary
  ********************
  
  -----------------------------------------------------------------------------
                                 Maximum  Time of Max   Maximum    Max/    Max/
                                  |Flow|   Occurrence   |Veloc|    Full    Full
  Link                 Type          LPS  days hr:min     m/sec    Flow   Depth
  -----------------------------------------------------------------------------
  WS02003066WSF200     CONDUIT    829.99     0  03:05      2.96    0.14    0.30
  WS02006287WS02006284 CONDUIT    413.47     0  03:02      2.04    0.19    0.30
  WS02006284WS02006280 CONDUIT    413.62     0  03:02      2.28    0.17    0.28
  WS02006280WS02006229 CONDUIT    413.62     0  03:02      3.39    0.09    0.25
  WS02006229WS02006228 CONDUIT    817.05     0  03:02      1.63    2.71    1.00
  WS02006256WS02006235 CONDUIT    288.60     0  00:00      4.23    3.05    1.00
  WS02006253WS02006251 CONDUIT    176.07     0  01:47      0.47    0.53    1.00
  WS02006252WS02006251 CONDUIT    405.23     0  01:47      3.22    1.49    1.00
  WS02006251WS02006249 CONDUIT    486.26     0  03:01      1.26    1.40    1.00
  WS02006249WS02006248 CONDUIT    418.28     0  07:30      1.20    2.29    1.00
  WS02006248WS02006247 CONDUIT    417.31     0  07:30      1.14    0.91    1.00
  WS02006247WS02006245 CONDUIT    416.84     0  07:30      1.08    3.31    1.00
  WS02006245WS02006243 CONDUIT    416.71     0  07:30      1.08    1.23    1.00
  WS02006243WS02006242 CONDUIT    416.88     0  07:30      1.08    0.89    1.00
  WS02006242WS02006240 CONDUIT    417.01     0  07:30      1.08    1.66    1.00
  WS02006240WS02006239 CONDUIT    417.96     0  07:30      1.09    1.32    1.00
  WS02006239WS02006238 CONDUIT    418.71     0  07:30      1.09    1.34    1.00
  WS02006238WS02006235 CONDUIT    419.81     0  07:30      1.46    0.94    1.00
  WS02006235WS02006234 CONDUIT    523.16     0  06:40      1.36    5.52    1.00
  WS02006234WS02006232 CONDUIT    522.66     0  06:48      1.39    1.06    1.00
  WS02006232WS02006231 CONDUIT    522.55     0  06:48      1.36    1.09    1.00
  WS02006231WS02006230 CONDUIT    522.59     0  06:46      1.37    7.93    1.00
  WS02006230WS02006229 CONDUIT    533.30     0  05:01      1.39   11.87    1.00
  WS02006228WS02006109 CONDUIT    816.95     0  03:02      1.63    3.57    1.00
  WS02006116WS02004401 CONDUIT    831.39     0  03:03      1.06    1.15    1.00
  WS02006115WS02006116 CONDUIT    831.09     0  03:02      1.06    1.07    1.00
  WS02006113WS02006111 CONDUIT    817.44     0  03:02      2.65    0.98    0.81
  WS02006112WS02006115 CONDUIT    831.00     0  03:03      1.06    0.49    1.00
  WS02006111WS02006112 CONDUIT    818.65     0  03:03      1.80    0.39    0.90
  WS02006110WS02006113 CONDUIT    818.10     0  03:02      1.71    0.74    0.90
  WS02006109WS02006110 CONDUIT    818.37     0  03:02      1.63    1.57    1.00
  WS02004411WS02004412 CONDUIT    829.85     0  03:04      1.16    1.18    0.85
  WS02004401WS02004402 CONDUIT    832.88     0  03:02      1.06    1.00    1.00
  WS02004413WS02003067 CONDUIT    829.84     0  03:04      1.42    0.36    0.70
  WS02004412WS02004413 CONDUIT    829.82     0  03:04      1.10    0.56    0.91
  WS02004410WS02004411 CONDUIT    829.95     0  03:04      1.15    1.13    0.86
  WS02004409WS02004410 CONDUIT    830.16     0  03:04      1.15    1.07    0.87
  WS02004407WS02004409 CONDUIT    830.70     0  03:03      1.62    0.29    0.62
  WS02004406WS02004407 CONDUIT    831.44     0  03:03      1.45    0.37    0.69
  WS02004405WS02004406 CONDUIT    831.28     0  03:03      1.06    1.64    1.00
  WS02004404WS02004405 CONDUIT    832.68     0  03:03      1.06    8.16    1.00
  WS02004403WS02004404 CONDUIT    831.48     0  03:03      1.06    0.60    1.00
  WS02004402WS02004403 CONDUIT    831.72     0  03:03      1.06    1.19    1.00
  WS02004139WS02001211 CONDUIT    382.26     0  04:38      0.90    0.48    0.63
  WS02004138WS02004139 CONDUIT    396.19     0  00:00      3.65    0.08    0.46
  WS02003067WS02003066 CONDUIT    829.95     0  03:05      1.54    0.27    0.48
  WS02001213WS02003059 CONDUIT    396.86     0  04:37      0.88    0.65    0.85
  WS02001212WS02001213 CONDUIT    393.76     0  04:37      1.32    0.61    0.53
  WS02001211WS02001212 CONDUIT    391.75     0  04:38      0.78    0.30    0.69
  WS02003072WS02003073 CONDUIT   1232.10     0  03:06      1.90    2.66    0.56
  WS02003069WS02003072 CONDUIT   1232.13     0  03:06      1.77    0.59    0.59
  WS02003060WS02003069 CONDUIT   1231.91     0  03:06      1.99    0.48    0.54
  WS02003059WS02003060 CONDUIT    400.69     0  04:36      0.95    0.26    0.74
  HS02004901HS02004770 CONDUIT     20.52     0  03:01      0.07    0.08    0.42
  HS02004876HS02004881 CONDUIT     76.55     0  03:01      0.95    0.81    0.12
  HS02004870HS02004876 CONDUIT     61.90     0  03:01      0.65    0.04    0.14
  HS02004842HS02004848 CONDUIT     12.41     0  03:01      0.06    0.01    0.31
  HS02004837HS02004842 CONDUIT     12.98     0  03:02      0.42    0.01    0.32
  HS02004830HS02004837 CONDUIT     43.71     0  03:01      0.57    0.04    0.11
  HS02004824HS02004830 CONDUIT     43.67     0  03:01      0.59    0.06    0.11
  HS02004817HS02004824 CONDUIT     85.68     0  03:01      0.26    0.04    0.48
  HS02004770HS02004777 CONDUIT    104.13     0  03:01      0.35    0.19    0.43
  HS02004799HS02004480 CONDUIT    258.30     0  03:01      0.83    0.33    0.44
  HS02004792HS02004799 CONDUIT    237.05     0  03:01      0.95    0.15    0.36
  HS02004788HS02004792 CONDUIT    135.43     0  03:01      1.06    0.09    0.18
  HS02004785HS02004788 CONDUIT    103.22     0  03:02      0.71    0.78    0.21
  HS02004777HS02004785 CONDUIT    103.37     0  03:01      0.42    0.13    0.35
  HS02004480HS02004478 CONDUIT    302.29     0  03:01      1.26    1.27    0.34
  HS02004479HS02004480 CONDUIT     46.29     0  03:02      0.32    0.04    0.43
  HS02004862HS02004870 CONDUIT     47.43     0  03:01      0.66    0.05    0.10
  HS02004848HS02004852 CONDUIT     21.94     0  03:01      0.45    0.02    0.07
  HS02004856HS02004862 CONDUIT     32.47     0  03:01      0.48    0.03    0.10
  HS02004852HS02004856 CONDUIT     21.85     0  03:02      0.25    0.02    0.13
  HS02004802HS02004478 CONDUIT    111.52     0  03:02      0.45    0.10    0.36
  HS02004478WS02006287 CONDUIT    413.22     0  03:01      1.75    0.12    0.26
  HS02004817HS02004807 CONDUIT     86.14     0  03:01      0.19    0.05    0.63
  HS02004807HS02004802 CONDUIT    111.36     0  03:01      0.38    0.21    0.42
  YS02001759YS02001757 CONDUIT    689.37     0  02:50      0.88    0.49    1.00
  YS02001762YS02001759 CONDUIT    349.81     0  02:50      0.45    0.40    1.00
  YS02001765YS02001762 CONDUIT    349.83     0  02:50      0.45    0.33    1.00
  YS02001770YS02001767 CONDUIT    350.87     0  02:50      0.45    1.39    1.00
  YS02001774YS02001770 CONDUIT    274.41     0  03:01      0.35    0.18    1.00
  YS02001779YS02001774 CONDUIT    275.23     0  03:01      0.35    0.14    1.00
  YS02001649YS02001757 CONDUIT    968.75     0  02:43      1.23    0.59    1.00
  YS02001767YS02001765 CONDUIT    350.50     0  02:50      0.45    0.44    1.00
  YS02006561YS02001783 CONDUIT   1023.60     0  02:47      2.15    0.53    1.00
  YS02001783YS02001784 CONDUIT   1023.19     0  02:47      2.04    1.41    1.00
  YS02001784YS02001785 CONDUIT   1024.40     0  02:47      2.04    2.38    1.00
  YS02001788YS02001790 CONDUIT   1024.79     0  02:47      2.44    0.76    1.00
  YS02001790YS02001791 CONDUIT   1024.32     0  02:47      2.88    1.11    1.00
  YS02001791YS02001793 CONDUIT   1024.69     0  02:47      5.76    0.44    1.00
  YS02001910YS02001907 CONDUIT    454.95     0  03:01      0.58    0.26    1.00
  YS02001786YS02001788 CONDUIT   1024.38     0  02:47      2.31    1.97    1.00
  YS02001915YS02001910 CONDUIT    455.52     0  03:01      0.59    0.23    1.00
  YS02001918YS02001915 CONDUIT    247.30     0  03:31      0.44    0.14    1.00
  YS02001923YS02001920 CONDUIT    186.27     0  03:30      0.72    0.08    1.00
  YS02001926YS02001923 CONDUIT    167.20     0  02:49      0.83    0.24    0.86
  YS02001929YS02001926 CONDUIT    154.46     0  03:01      0.89    0.07    0.75
  YS02001920YS02001918 CONDUIT    211.02     0  03:30      0.70    0.20    1.00
  YS02001629YS02163301 CONDUIT    216.03     0  02:42      0.28    0.27    1.00
  YS02001619YS02001622 CONDUIT    291.38     0  03:01      0.61    0.43    1.00
  YS02001622YS02001625 CONDUIT    290.35     0  03:01      0.37    0.15    1.00
  YS02001625YS02001629 CONDUIT    214.79     0  02:42      0.27    0.10    1.00
  YS02163301YS02001633 CONDUIT    215.99     0  02:42      0.28    0.20    1.00
  YS02163601YS02164001 CONDUIT    453.28     0  02:42      0.58    0.40    1.00
  YS02164001YS02001641 CONDUIT    453.44     0  02:42      0.58    0.62    1.00
  YS02001641YS02001644 CONDUIT    453.67     0  02:42      0.58    1.47    1.00
  YS02001647YS02001649 CONDUIT    687.41     0  02:43      0.88    0.36    1.00
  YS02006553YS02006556 CONDUIT    703.98     0  03:31      0.90    0.60    1.00
  YS02006556YS02006558 CONDUIT    704.70     0  03:31      0.90    0.56    1.00
  YSB6556YSB1171       CONDUIT     25.76     0  03:03      0.09    0.03    0.70
  YS02001907YS02006553 CONDUIT    703.33     0  03:31      0.78    0.83    1.00
  YS02006558YS02006561 CONDUIT   1023.46     0  02:47      3.62    2.26    1.00
  YS02001633YS02163601 CONDUIT    452.69     0  02:42      0.58    0.48    1.00
  YS02001644YS02001647 CONDUIT    687.68     0  02:43      0.88    0.40    1.00
  YS02001745YS02001748 CONDUIT    539.43     0  02:36      1.48    0.21    0.94
  YS02001748YS02001751 CONDUIT    347.48     0  03:01      1.06    0.18    1.00
  YS02001751YS02001754 CONDUIT    347.67     0  03:01      0.92    0.17    1.00
  YS02001754YS02001757 CONDUIT    348.24     0  03:01      0.44    0.14    1.00
  YS02001882YS02001884 CONDUIT     33.08     0  02:28      0.13    0.04    1.00
  YS02001884YS02001887 CONDUIT     61.66     0  02:28      0.09    0.08    1.00
  YS02001890YS02001895 CONDUIT    494.77     0  03:00      0.63    0.23    1.00
  YS02001895YS02001898 CONDUIT    495.36     0  03:01      0.63    0.86    1.00
  YS02001898YS02001901 CONDUIT    495.31     0  03:01      0.63    0.32    1.00
  YS02001901YS02001904 CONDUIT    495.61     0  03:01      0.63    0.77    1.00
  YS02001904YS02001907 CONDUIT    495.39     0  03:01      0.63    0.17    1.00
  YS02001887YS02001890 CONDUIT    495.28     0  03:00      0.63    0.85    1.00
  YS02001652YS02001649 CONDUIT    402.22     0  03:02      0.63    0.20    1.00
  YS02001655YS02001652 CONDUIT    399.29     0  03:02      0.98    0.19    1.00
  YS02001658YS02001655 CONDUIT    397.75     0  03:02      1.22    0.17    1.00
  YS02001661YS02001658 CONDUIT    411.09     0  02:34      1.55    0.16    1.00
  YS02001664YS02001661 CONDUIT    678.23     0  02:49      1.61    0.21    0.72
  YSB1154YSB6556       CONDUIT     25.82     0  03:01      0.17    0.05    0.59
  YSB1174YSB1171       CONDUIT     20.15     0  03:01      0.07    0.03    0.70
  YSB1171HS02004479    CONDUIT     44.91     0  03:02      0.54    0.03    0.55
  HS02004881HS02006253 CONDUIT     84.16     0  03:01      1.60    0.02    0.53
  YS02001793JiankangQianchi CONDUIT   1024.73     0  02:47     16.61    0.08    1.00
  YS02001757CaochengTiaoxuchi CONDUIT   1831.60     0  02:44      2.50    0.80    1.00
  WSF200WS02003060     CONDUIT    830.07     0  03:05      2.00    0.18    0.42
  1                    CONDUIT   1233.89     0  03:07      3.52    0.43    0.46
  CC-Pump-1            PUMP       200.00     0  01:45              1.00
  CC-Pump-2            PUMP       200.00     0  01:45              1.00
  JK-Pump-1            PUMP       300.00     0  00:00              1.00
  JK-Pump-2            PUMP       683.00     0  00:00              1.00
  XR-Pump-1            PUMP        95.00     0  00:00              1.00
  XR-Pump-2            PUMP        95.00     0  00:00              1.00
  XR-Pump-3            PUMP        95.00     0  00:00              1.00
  XR-Pump-4            PUMP        95.00     0  00:00              1.00
  
  
  ***************************
  Flow Classification Summary
  ***************************
  
  -------------------------------------------------------------------------------------
                      Adjusted    ---------- Fraction of Time in Flow Class ---------- 
                       /Actual         Up    Down  Sub   Sup   Up    Down  Norm  Inlet 
  Conduit               Length    Dry  Dry   Dry   Crit  Crit  Crit  Crit  Ltd   Ctrl  
  -------------------------------------------------------------------------------------
  WS02003066WSF200        1.00   0.02  0.05  0.00  0.00  0.93  0.00  0.00  0.32  0.00
  WS02006287WS02006284    1.00   0.03  0.01  0.00  0.64  0.32  0.00  0.00  0.62  0.00
  WS02006284WS02006280    1.00   0.03  0.00  0.00  0.00  0.00  0.00  0.97  0.00  0.00
  WS02006280WS02006229    1.00   0.03  0.00  0.00  0.00  0.04  0.00  0.93  0.06  0.00
  WS02006229WS02006228    1.00   0.00  0.00  0.00  1.00  0.00  0.00  0.00  0.00  0.00
  WS02006256WS02006235    1.00   0.00  0.00  0.00  1.00  0.00  0.00  0.00  0.00  0.00
  WS02006253WS02006251    1.00   0.01  0.02  0.00  0.97  0.00  0.01  0.00  0.00  0.00
  WS02006252WS02006251    1.00   0.06  0.00  0.00  0.29  0.00  0.65  0.00  0.00  0.00
  WS02006251WS02006249    1.00   0.00  0.00  0.00  1.00  0.00  0.00  0.00  0.20  0.00
  WS02006249WS02006248    1.00   0.00  0.01  0.00  0.93  0.00  0.07  0.00  0.00  0.00
  WS02006248WS02006247    1.00   0.01  0.00  0.00  0.98  0.00  0.00  0.01  0.08  0.00
  WS02006247WS02006245    1.00   0.01  0.00  0.00  0.97  0.00  0.00  0.02  0.00  0.00
  WS02006245WS02006243    1.00   0.00  0.00  0.00  0.95  0.00  0.00  0.04  0.02  0.00
  WS02006243WS02006242    1.00   0.00  0.00  0.00  1.00  0.00  0.00  0.00  0.18  0.00
  WS02006242WS02006240    1.00   0.00  0.00  0.00  1.00  0.00  0.00  0.00  0.00  0.00
  WS02006240WS02006239    1.00   0.00  0.00  0.00  0.96  0.00  0.00  0.04  0.02  0.00
  WS02006239WS02006238    1.00   0.00  0.00  0.00  1.00  0.00  0.00  0.00  0.07  0.00
  WS02006238WS02006235    1.00   0.00  0.00  0.00  1.00  0.00  0.00  0.00  0.00  0.00
  WS02006235WS02006234    1.00   0.00  0.00  0.00  0.96  0.00  0.04  0.00  0.00  0.00
  WS02006234WS02006232    1.00   0.00  0.00  0.00  1.00  0.00  0.00  0.00  0.04  0.00
  WS02006232WS02006231    1.00   0.00  0.00  0.00  1.00  0.00  0.00  0.00  0.00  0.00
  WS02006231WS02006230    1.00   0.00  0.00  0.00  0.89  0.00  0.11  0.00  0.00  0.00
  WS02006230WS02006229    1.00   0.00  0.00  0.00  1.00  0.00  0.00  0.00  0.01  0.00
  WS02006228WS02006109    1.00   0.00  0.00  0.00  1.00  0.00  0.00  0.00  0.00  0.00
  WS02006116WS02004401    1.00   0.01  0.00  0.00  0.99  0.00  0.00  0.00  0.01  0.00
  WS02006115WS02006116    1.00   0.01  0.00  0.00  0.97  0.00  0.00  0.02  0.01  0.00
  WS02006113WS02006111    1.00   0.01  0.00  0.00  0.05  0.94  0.00  0.00  0.10  0.00
  WS02006112WS02006115    1.00   0.01  0.00  0.00  0.99  0.00  0.00  0.00  0.00  0.00
  WS02006111WS02006112    1.00   0.01  0.00  0.00  0.99  0.00  0.00  0.00  0.76  0.00
  WS02006110WS02006113    1.00   0.00  0.00  0.00  0.99  0.00  0.00  0.00  0.00  0.00
  WS02006109WS02006110    1.00   0.00  0.00  0.00  1.00  0.00  0.00  0.00  0.00  0.00
  WS02004411WS02004412    1.00   0.05  0.00  0.00  0.95  0.00  0.00  0.00  0.00  0.00
  WS02004401WS02004402    1.00   0.01  0.00  0.00  0.99  0.00  0.00  0.00  0.01  0.00
  WS02004413WS02003067    1.00   0.05  0.01  0.00  0.00  0.00  0.94  0.00  0.00  0.00
  WS02004412WS02004413    1.00   0.05  0.00  0.00  0.95  0.00  0.00  0.00  0.00  0.00
  WS02004410WS02004411    1.00   0.05  0.00  0.00  0.95  0.00  0.00  0.00  0.00  0.00
  WS02004409WS02004410    1.00   0.05  0.00  0.00  0.95  0.00  0.00  0.00  0.00  0.00
  WS02004407WS02004409    1.00   0.05  0.00  0.00  0.95  0.01  0.00  0.00  0.81  0.00
  WS02004406WS02004407    1.00   0.00  0.05  0.00  0.95  0.00  0.00  0.00  0.00  0.00
  WS02004405WS02004406    1.00   0.00  0.00  0.00  1.00  0.00  0.00  0.00  0.02  0.00
  WS02004404WS02004405    1.00   0.00  0.00  0.00  1.00  0.00  0.00  0.00  0.00  0.00
  WS02004403WS02004404    1.00   0.00  0.01  0.00  0.99  0.00  0.00  0.00  0.02  0.00
  WS02004402WS02004403    1.00   0.01  0.00  0.00  0.99  0.00  0.00  0.00  0.00  0.00
  WS02004139WS02001211    1.00   0.00  0.00  0.00  1.00  0.00  0.00  0.00  0.00  0.00
  WS02004138WS02004139    1.00   0.00  0.00  0.00  1.00  0.00  0.00  0.00  1.00  0.00
  WS02003067WS02003066    1.00   0.06  0.00  0.00  0.94  0.00  0.00  0.00  0.00  0.00
  WS02001213WS02003059    1.00   0.00  0.00  0.00  1.00  0.00  0.00  0.00  0.00  0.00
  WS02001212WS02001213    1.00   0.00  0.00  0.00  0.92  0.00  0.07  0.00  0.00  0.00
  WS02001211WS02001212    1.00   0.00  0.00  0.00  1.00  0.00  0.00  0.00  0.00  0.00
  WS02003072WS02003073    1.00   0.00  0.00  0.00  0.00  0.00  0.00  1.00  0.00  0.00
  WS02003069WS02003072    1.00   0.00  0.00  0.00  1.00  0.00  0.00  0.00  0.09  0.00
  WS02003060WS02003069    1.00   0.00  0.00  0.00  0.99  0.01  0.00  0.00  0.07  0.00
  WS02003059WS02003060    1.00   0.00  0.00  0.00  1.00  0.00  0.00  0.00  0.00  0.00
  HS02004901HS02004770    1.00   0.03  0.00  0.00  0.97  0.00  0.00  0.00  0.00  0.00
  HS02004876HS02004881    1.00   0.01  0.00  0.00  0.94  0.05  0.00  0.00  0.00  0.00
  HS02004870HS02004876    1.00   0.00  0.00  0.00  1.00  0.00  0.00  0.00  0.95  0.00
  HS02004842HS02004848    1.00   0.00  0.03  0.00  0.97  0.00  0.00  0.00  0.55  0.00
  HS02004837HS02004842    1.00   0.00  0.00  0.00  1.00  0.00  0.00  0.00  0.11  0.00
  HS02004830HS02004837    1.00   0.00  0.00  0.00  1.00  0.00  0.00  0.00  0.99  0.00
  HS02004824HS02004830    1.00   0.00  0.00  0.00  1.00  0.00  0.00  0.00  0.00  0.00
  HS02004817HS02004824    1.00   0.00  0.00  0.00  1.00  0.00  0.00  0.00  1.00  0.00
  HS02004770HS02004777    1.00   0.00  0.03  0.00  0.97  0.00  0.00  0.00  0.02  0.00
  HS02004799HS02004480    1.00   0.00  0.01  0.00  0.96  0.00  0.03  0.00  0.00  0.00
  HS02004792HS02004799    1.00   0.00  0.00  0.00  1.00  0.00  0.00  0.00  0.98  0.00
  HS02004788HS02004792    1.00   0.00  0.00  0.00  1.00  0.00  0.00  0.00  0.98  0.00
  HS02004785HS02004788    1.00   0.00  0.00  0.00  1.00  0.00  0.00  0.00  0.00  0.00
  HS02004777HS02004785    1.00   0.00  0.00  0.00  1.00  0.00  0.00  0.00  0.12  0.00
  HS02004480HS02004478    1.00   0.03  0.00  0.00  0.73  0.00  0.00  0.24  0.00  0.00
  HS02004479HS02004480    1.00   0.01  0.00  0.00  0.99  0.00  0.00  0.00  0.11  0.00
  HS02004862HS02004870    1.00   0.00  0.00  0.00  1.00  0.00  0.00  0.00  0.03  0.00
  HS02004848HS02004852    1.00   0.03  0.00  0.00  0.97  0.00  0.00  0.00  0.62  0.00
  HS02004856HS02004862    1.00   0.00  0.04  0.00  0.96  0.00  0.00  0.00  0.83  0.00
  HS02004852HS02004856    1.00   0.03  0.00  0.00  0.97  0.00  0.00  0.00  0.85  0.00
  HS02004802HS02004478    1.00   0.03  0.00  0.00  0.97  0.00  0.00  0.00  0.02  0.00
  HS02004478WS02006287    1.00   0.04  0.00  0.00  0.78  0.18  0.00  0.00  0.64  0.00
  HS02004817HS02004807    1.00   0.00  0.03  0.00  0.97  0.00  0.00  0.00  0.01  0.00
  HS02004807HS02004802    1.00   0.03  0.00  0.00  0.96  0.00  0.00  0.00  0.00  0.00
  YS02001759YS02001757    1.00   0.00  0.00  0.00  1.00  0.00  0.00  0.00  0.16  0.00
  YS02001762YS02001759    1.00   0.00  0.00  0.00  1.00  0.00  0.00  0.00  0.03  0.00
  YS02001765YS02001762    1.00   0.00  0.00  0.00  1.00  0.00  0.00  0.00  0.13  0.00
  YS02001770YS02001767    1.00   0.00  0.00  0.00  1.00  0.00  0.00  0.00  0.00  0.00
  YS02001774YS02001770    1.00   0.00  0.03  0.00  0.97  0.00  0.00  0.00  0.02  0.00
  YS02001779YS02001774    1.00   0.00  0.00  0.00  1.00  0.00  0.00  0.00  0.18  0.00
  YS02001649YS02001757    1.00   0.00  0.00  0.00  1.00  0.00  0.00  0.00  0.16  0.00
  YS02001767YS02001765    1.00   0.00  0.00  0.00  1.00  0.00  0.00  0.00  0.00  0.00
  YS02006561YS02001783    1.00   0.05  0.00  0.00  0.21  0.75  0.00  0.00  0.46  0.00
  YS02001783YS02001784    1.00   0.00  0.05  0.00  0.95  0.00  0.00  0.00  0.00  0.00
  YS02001784YS02001785    1.00   0.00  0.00  0.00  1.00  0.00  0.00  0.00  0.17  0.00
  YS02001788YS02001790    1.00   0.00  0.00  0.00  0.22  0.78  0.00  0.00  0.44  0.00
  YS02001790YS02001791    1.00   0.00  0.00  0.00  0.18  0.82  0.00  0.00  0.57  0.00
  YS02001791YS02001793    1.00   0.00  0.00  0.00  0.19  0.81  0.00  0.00  0.01  0.00
  YS02001910YS02001907    1.00   0.00  0.00  0.00  0.99  0.00  0.00  0.01  0.12  0.00
  YS02001786YS02001788    1.00   0.00  0.00  0.00  0.22  0.78  0.00  0.00  0.00  0.00
  YS02001915YS02001910    1.00   0.00  0.00  0.00  0.99  0.01  0.00  0.00  0.15  0.00
  YS02001918YS02001915    1.00   0.00  0.00  0.00  0.99  0.00  0.00  0.00  0.55  0.00
  YS02001923YS02001920    1.00   0.00  0.00  0.00  1.00  0.00  0.00  0.00  0.84  0.00
  YS02001926YS02001923    1.00   0.00  0.02  0.00  0.09  0.00  0.89  0.00  0.00  0.00
  YS02001929YS02001926    1.00   0.00  0.03  0.00  0.97  0.00  0.00  0.00  0.76  0.00
  YS02001920YS02001918    1.00   0.00  0.00  0.00  1.00  0.00  0.00  0.00  0.00  0.00
  YS02001629YS02163301    1.00   0.04  0.00  0.00  0.96  0.00  0.00  0.00  0.00  0.00
  YS02001619YS02001622    1.00   0.03  0.00  0.00  0.97  0.00  0.00  0.00  0.00  0.00
  YS02001622YS02001625    1.00   0.03  0.00  0.00  0.97  0.00  0.00  0.00  0.04  0.00
  YS02001625YS02001629    1.00   0.03  0.01  0.00  0.94  0.00  0.02  0.00  0.00  0.00
  YS02163301YS02001633    1.00   0.00  0.04  0.00  0.96  0.00  0.00  0.00  0.00  0.00
  YS02163601YS02164001    1.00   0.00  0.02  0.00  0.98  0.00  0.00  0.00  0.00  0.00
  YS02164001YS02001641    1.00   0.00  0.02  0.00  0.98  0.00  0.00  0.00  0.06  0.00
  YS02001641YS02001644    1.00   0.00  0.00  0.00  1.00  0.00  0.00  0.00  0.00  0.00
  YS02001647YS02001649    1.00   0.00  0.04  0.00  0.96  0.00  0.00  0.00  0.01  0.00
  YS02006553YS02006556    1.00   0.00  0.00  0.00  1.00  0.00  0.00  0.00  0.03  0.00
  YS02006556YS02006558    1.00   0.00  0.00  0.00  1.00  0.00  0.00  0.00  0.00  0.00
  YSB6556YSB1171          1.00   0.01  0.02  0.00  0.97  0.00  0.00  0.00  0.00  0.00
  YS02001907YS02006553    1.00   0.00  0.01  0.00  0.99  0.00  0.00  0.00  0.00  0.00
  YS02006558YS02006561    1.00   0.05  0.00  0.00  0.09  0.86  0.00  0.00  0.48  0.00
  YS02001633YS02163601    1.00   0.00  0.00  0.00  1.00  0.00  0.00  0.00  0.15  0.00
  YS02001644YS02001647    1.00   0.00  0.04  0.00  0.96  0.00  0.00  0.00  0.00  0.00
  YS02001745YS02001748    1.00   0.00  0.00  0.00  0.90  0.01  0.00  0.09  0.07  0.00
  YS02001748YS02001751    1.00   0.00  0.00  0.00  0.97  0.03  0.00  0.00  0.15  0.00
  YS02001751YS02001754    1.00   0.00  0.00  0.00  0.95  0.00  0.00  0.05  0.02  0.00
  YS02001754YS02001757    1.00   0.00  0.00  0.00  1.00  0.00  0.00  0.00  0.18  0.00
  YS02001882YS02001884    1.00   0.04  0.00  0.00  0.96  0.00  0.00  0.00  0.00  0.00
  YS02001884YS02001887    1.00   0.02  0.01  0.00  0.97  0.00  0.00  0.00  0.00  0.00
  YS02001890YS02001895    1.00   0.00  0.04  0.00  0.96  0.00  0.00  0.00  0.00  0.00
  YS02001895YS02001898    1.00   0.04  0.00  0.00  0.95  0.00  0.01  0.00  0.00  0.00
  YS02001898YS02001901    1.00   0.04  0.00  0.00  0.96  0.00  0.00  0.00  0.01  0.00
  YS02001901YS02001904    1.00   0.04  0.00  0.00  0.96  0.00  0.00  0.00  0.00  0.00
  YS02001904YS02001907    1.00   0.00  0.04  0.00  0.96  0.00  0.00  0.00  0.00  0.00
  YS02001887YS02001890    1.00   0.00  0.00  0.00  0.99  0.00  0.01  0.00  0.00  0.00
  YS02001652YS02001649    1.00   0.00  0.00  0.00  1.00  0.00  0.00  0.00  0.16  0.00
  YS02001655YS02001652    1.00   0.00  0.00  0.00  0.95  0.00  0.00  0.05  0.02  0.00
  YS02001658YS02001655    1.00   0.00  0.04  0.00  0.94  0.03  0.00  0.00  0.08  0.00
  YS02001661YS02001658    1.00   0.04  0.00  0.00  0.90  0.06  0.00  0.00  0.11  0.00
  YS02001664YS02001661    1.00   0.03  0.00  0.00  0.88  0.09  0.00  0.00  0.21  0.00
  YSB1154YSB6556          1.00   0.03  0.00  0.00  0.97  0.00  0.00  0.00  0.01  0.00
  YSB1174YSB1171          1.00   0.01  0.01  0.00  0.98  0.00  0.00  0.00  0.00  0.00
  YSB1171HS02004479       1.00   0.01  0.00  0.00  0.99  0.00  0.00  0.00  0.10  0.00
  HS02004881HS02006253    1.00   0.01  0.00  0.00  0.90  0.01  0.00  0.08  0.76  0.00
  YS02001793JiankangQianchi    1.00   0.00  0.00  0.00  0.34  0.66  0.00  0.00  0.21  0.00
  YS02001757CaochengTiaoxuchi    1.00   0.00  0.06  0.00  0.91  0.02  0.00  0.00  0.00  0.00
  WSF200WS02003060        1.00   0.00  0.02  0.00  0.95  0.03  0.00  0.00  0.17  0.00
  1                       1.00   0.00  0.00  0.00  0.00  1.00  0.00  0.00  0.56  0.00
  
  
  *************************
  Conduit Surcharge Summary
  *************************
  
  ----------------------------------------------------------------------------
                                                           Hours        Hours 
                         --------- Hours Full --------   Above Full   Capacity
  Conduit                Both Ends  Upstream  Dnstream   Normal Flow   Limited
  ----------------------------------------------------------------------------
  WS02006229WS02006228        5.69      5.72      5.69      5.90         5.69
  WS02006256WS02006235        6.19      6.19      7.22      5.42         0.01
  WS02006253WS02006251        3.77      3.78      3.83      0.01         0.01
  WS02006252WS02006251        3.36      3.36      4.06      3.84         0.01
  WS02006251WS02006249        3.79      3.79      3.87      3.08         2.99
  WS02006249WS02006248        3.81      3.81      3.87      5.83         0.01
  WS02006248WS02006247        3.86      3.86      4.07      0.01         0.01
  WS02006247WS02006245        4.06      4.12      4.06      5.92         3.98
  WS02006245WS02006243        4.11      4.11      4.30      0.56         0.79
  WS02006243WS02006242        4.40      4.40      5.60      0.01         0.01
  WS02006242WS02006240        5.41      5.41      5.65      3.45         0.01
  WS02006240WS02006239        5.49      5.49      5.61      1.52         1.52
  WS02006239WS02006238        5.64      5.64      5.65      1.77         1.67
  WS02006238WS02006235        5.64      5.64      5.67      0.01         0.02
  WS02006235WS02006234        5.42      5.42      5.63      6.18         0.01
  WS02006234WS02006232        5.62      5.62      5.67      1.49         1.43
  WS02006232WS02006231        3.49      3.49      5.67      1.80         0.01
  WS02006231WS02006230        3.00      3.00      3.59      6.21         0.01
  WS02006230WS02006229        5.81      5.85      5.81      6.35         5.81
  WS02006228WS02006109        5.70      5.76      5.70      5.99         5.70
  WS02006116WS02004401        1.16      1.16      1.18      0.76         0.76
  WS02006115WS02006116        0.60      0.60      0.62      0.41         0.41
[...]
  YS02001765YS02001762        5.83      5.83      5.86      0.01         0.01
  YS02001770YS02001767        5.65      5.66      5.66      0.41         0.92
  YS02001774YS02001770        5.63      5.63      5.85      0.01         0.01
  YS02001779YS02001774        5.47      5.47      5.85      0.01         0.01
  YS02001649YS02001757        5.87      5.87      5.97      0.01         0.01
  YS02001767YS02001765        5.66      5.66      5.83      0.01         0.01
  YS02006561YS02001783        0.74      0.74      1.18      0.01         0.01
  YS02001783YS02001784        1.16      1.18      1.16      1.32         1.08
  YS02001784YS02001785        1.10      1.16      1.10      2.39         1.10
  YS02001788YS02001790        1.05      1.05      1.36      0.01         0.01
  YS02001790YS02001791        1.36      1.36      1.39      0.92         0.90
  YS02001791YS02001793        1.39      1.39      1.59      0.01         0.01
  YS02001910YS02001907        1.11      1.11      1.75      0.01         0.01
  YS02001786YS02001788        1.05      1.10      1.05      1.98         1.05
  YS02001915YS02001910        0.92      0.92      1.11      0.01         0.01
  YS02001918YS02001915        0.70      0.70      0.92      0.01         0.01
  YS02001923YS02001920        0.53      0.53      0.74      0.01         0.01
  YS02001920YS02001918        0.70      0.70      0.74      0.01         0.01
  YS02001629YS02163301        5.61      5.61      5.67      0.01         0.01
  YS02001619YS02001622        5.35      5.35      5.38      0.01         0.01
  YS02001622YS02001625        5.38      5.38      5.60      0.01         0.01
  YS02001625YS02001629        5.35      5.35      5.60      0.01         0.01
  YS02163301YS02001633        5.67      5.67      5.83      0.01         0.01
  YS02163601YS02164001        5.83      5.83      5.87      0.01         0.01
  YS02164001YS02001641        5.83      5.83      5.84      0.01         0.01
  YS02001641YS02001644        5.84      5.84      5.84      1.51         1.54
  YS02001647YS02001649        5.59      5.59      5.87      0.01         0.01
  YS02006553YS02006556        1.31      1.31      1.85      0.01         0.01
  YS02006556YS02006558        1.53      1.53      1.95      0.01         0.01
  YS02001907YS02006553        2.41      2.41      2.63      0.01         0.01
  YS02006558YS02006561        0.94      1.29      0.94      2.24         0.94
  YS02001633YS02163601        5.82      5.82      5.87      0.01         0.01
  YS02001644YS02001647        5.59      5.59      5.84      0.01         0.01
  YS02001745YS02001748        0.01      0.01      5.01      0.01         0.01
  YS02001748YS02001751        5.22      5.22      5.32      0.01         0.01
  YS02001751YS02001754        5.32      5.32      5.47      0.01         0.01
  YS02001754YS02001757        5.59      5.59      5.97      0.01         0.01
  YS02001882YS02001884        0.93      0.93      0.96      0.01         0.01
  YS02001884YS02001887        1.00      1.00      1.03      0.01         0.01
  YS02001890YS02001895        0.91      0.91      1.13      0.01         0.01
  YS02001895YS02001898        0.89      0.89      0.91      0.01         0.01
  YS02001898YS02001901        0.91      0.91      1.00      0.01         0.01
  YS02001901YS02001904        0.97      0.97      1.00      0.01         0.01
  YS02001904YS02001907        0.97      0.97      1.91      0.01         0.01
  YS02001887YS02001890        1.06      1.06      1.08      0.01         0.01
  YS02001652YS02001649        5.60      5.60      5.87      0.01         0.01
  YS02001655YS02001652        5.37      5.37      5.59      0.01         0.01
  YS02001658YS02001655        5.09      5.09      5.37      0.01         0.01
  YS02001661YS02001658        0.19      0.19      5.09      0.01         0.01
  YS02001664YS02001661        0.01      0.01      1.02      0.01         0.01
  HS02004881HS02006253        0.01      0.01      2.91      0.01         0.01
  YS02001793JiankangQianchi        1.55      1.55      2.41      0.01         0.01
  YS02001757CaochengTiaoxuchi        4.96      4.96      5.97      0.01         0.01
  
  
  ***************
  Pumping Summary
  ***************
  
  ---------------------------------------------------------------------------------------------------------
                                                  Min       Avg       Max     Total     Power    % Time Off
                        Percent   Number of      Flow      Flow      Flow    Volume     Usage    Pump Curve
  Pump                 Utilized   Start-Ups       LPS       LPS       LPS  10^6 ltr     Kw-hr    Low   High
  ---------------------------------------------------------------------------------------------------------
  CC-Pump-1               78.79           1      0.00    193.88    200.00     4.289      7.86    0.0   12.1
  CC-Pump-2               57.51           5      0.00    133.72    200.00     2.609      6.59    0.0   16.6
  JK-Pump-1               78.73           5      0.00    209.72    300.00     4.243     74.86    0.0    0.0
  JK-Pump-2               74.46           5      0.00    339.02    683.00     6.952    108.25    0.0   98.1
  XR-Pump-1               97.87           2      0.00     94.34     95.00     2.565     26.17    0.0    0.0
  XR-Pump-2               97.87           2      0.00     91.90     95.00     2.508     25.06    0.0    0.0
  XR-Pump-3               97.87           2      0.00     91.44     95.00     2.451     23.75    0.0    0.0
  XR-Pump-4               97.87           2      0.00     91.44     95.00     2.451     23.75    0.0    0.0
  
  
  ***************************
  Link Pollutant Load Summary
  ***************************
  
  ------------------------------------------------------------------------------------------
                                 COD            SS            TN            TP         NH4-N
  Link                            kg            kg            kg            kg            kg
  ------------------------------------------------------------------------------------------
  WS02003066WSF200           890.122      1648.820        22.542         1.925        11.763
  WS02006287WS02006284       268.086       498.272         9.346         0.943         5.214
  WS02006284WS02006280       268.574       499.060         9.393         0.949         5.243
  WS02006280WS02006229       268.548       499.013         9.391         0.948         5.242
  WS02006229WS02006228       905.371      1677.280        22.332         1.870        11.567
  WS02006256WS02006235       142.467       266.062         2.943         0.220         1.464
  WS02006253WS02006251        50.988        98.482         1.147         0.086         0.571
  WS02006252WS02006251       582.862      1069.922        11.680         0.814         5.664
  WS02006251WS02006249       625.363      1152.780        12.666         0.890         6.160
  WS02006249WS02006248       509.114       938.696        10.323         0.725         5.024
  WS02006248WS02006247       508.404       937.425        10.311         0.724         5.018
  WS02006247WS02006245       507.556       935.903        10.292         0.723         5.009
  WS02006245WS02006243       506.412       933.867        10.266         0.721         4.996
  WS02006243WS02006242       505.481       932.212        10.249         0.720         4.988
  WS02006242WS02006240       503.990       929.513        10.219         0.718         4.973
  WS02006240WS02006239       502.764       927.292        10.194         0.716         4.962
  WS02006239WS02006238       501.649       925.227        10.191         0.717         4.963
  WS02006238WS02006235       501.294       924.547        10.198         0.719         4.969
  WS02006235WS02006234       642.025      1187.616        13.046         0.929         6.377
  WS02006234WS02006232       640.839      1185.457        13.028         0.928         6.369
  WS02006232WS02006231       639.679      1183.363        13.003         0.926         6.356
  WS02006231WS02006230       638.426      1181.112        12.974         0.924         6.342
  WS02006230WS02006229       637.644      1179.699        12.965         0.924         6.339
  WS02006228WS02006109       903.876      1674.574        22.299         1.868        11.552
  WS02006116WS02004401       910.345      1685.291        23.007         1.961        11.998
  WS02006115WS02006116       912.358      1688.897        23.055         1.964        12.022
  WS02006113WS02006111       907.847      1680.000        23.000         1.960        12.001
  WS02006112WS02006115       914.207      1692.165        23.111         1.969        12.052
  WS02006111WS02006112       907.411      1679.255        22.991         1.960        11.997
  WS02006110WS02006113       909.021      1682.126        23.033         1.963        12.019
  WS02006109WS02006110       910.760      1685.233        23.087         1.968        12.049
  WS02004411WS02004412       894.894      1657.306        22.694         1.939        11.846
  WS02004401WS02004402       908.476      1681.971        22.952         1.956        11.968
  WS02004413WS02003067       891.333      1651.037        22.568         1.927        11.776
  WS02004412WS02004413       893.073      1654.047        22.645         1.935        11.821
  WS02004410WS02004411       896.590      1660.361        22.736         1.943        11.868
  WS02004409WS02004410       898.235      1663.307        22.781         1.947        11.892
  WS02004407WS02004409       899.884      1666.291        22.819         1.949        11.911
  WS02004406WS02004407       900.720      1667.840        22.830         1.950        11.916
  WS02004405WS02004406       903.184      1672.194        22.922         1.959        11.967
  WS02004404WS02004405       905.177      1675.875        22.938         1.959        11.971
  WS02004403WS02004404       905.097      1675.939        22.860         1.948        11.919
  WS02004402WS02004403       906.616      1678.635        22.906         1.952        11.944
  WS02004139WS02001211      1405.200      2314.971       116.875        14.313        72.177
  WS02004138WS02004139      1411.763      2325.814       117.404        14.377        72.503
  WS02003067WS02003066       890.391      1649.304        22.550         1.926        11.767
  WS02001213WS02003059      1437.555      2365.993       120.203        14.732        74.266
  WS02001212WS02001213      1446.934      2381.402       120.985        14.828        74.750
  WS02001211WS02001212      1449.251      2385.168       121.189        14.853        74.877
  WS02003072WS02003073      2425.491      4169.986       152.573        17.893        92.190
  WS02003069WS02003072      2431.166      4179.243       153.050        17.951        92.485
  WS02003060WS02003069      2434.323      4184.678       153.224        17.971        92.589
  WS02003059WS02003060      1434.223      2360.435       119.950        14.702        74.112
  HS02004901HS02004770        10.270        19.478         0.195         0.015         0.091
  HS02004876HS02004881        37.321        72.586         0.843         0.062         0.416
  HS02004870HS02004876        28.162        54.632         0.678         0.051         0.338
  HS02004842HS02004848         5.467        10.277         0.115         0.008         0.053
  HS02004837HS02004842        10.072        17.582         0.584         0.067         0.347
  HS02004830HS02004837        65.638       112.703         4.556         0.546         2.785
  HS02004824HS02004830        66.389       113.907         4.628         0.555         2.829
  HS02004817HS02004824        88.207       156.979         5.083         0.584         3.051
  HS02004770HS02004777        39.297        75.468         0.819         0.055         0.377
  HS02004799HS02004480       131.418       245.390         3.680         0.335         1.932
  HS02004792HS02004799       119.092       220.676         3.497         0.327         1.853
  HS02004788HS02004792        68.399       126.864         2.388         0.235         1.309
  HS02004785HS02004788        40.736        77.766         0.969         0.074         0.471
  HS02004777HS02004785        40.062        76.672         0.909         0.067         0.434
  HS02004480HS02004478       165.968       312.630         4.244         0.375         2.196
  HS02004479HS02004480        38.152        72.988         0.884         0.079         0.462
  HS02004862HS02004870        21.017        40.120         0.536         0.043         0.270
  HS02004848HS02004852         8.058        15.280         0.167         0.011         0.077
  HS02004856HS02004862        14.073        27.343         0.284         0.019         0.133
  HS02004852HS02004856         8.065        15.292         0.167         0.011         0.077
  HS02004802HS02004478       102.887       186.895         5.162         0.575         3.054
  HS02004478WS02006287       268.280       498.595         9.363         0.945         5.224
  HS02004817HS02004807        86.889       154.865         4.956         0.568         2.972
  HS02004807HS02004802       103.110       187.241         5.194         0.580         3.075
  YS02001759YS02001757       419.679       773.252         8.351         0.575         4.074
  YS02001762YS02001759       171.635       316.879         3.699         0.257         1.832
  YS02001765YS02001762       171.305       316.311         3.710         0.258         1.840
  YS02001770YS02001767       169.124       312.866         3.407         0.218         1.646
  YS02001774YS02001770        94.664       180.257         1.858         0.120         0.896
  YS02001779YS02001774        93.744       178.440         1.932         0.132         0.949
  YS02001649YS02001757       336.459       598.490         6.718         0.473         3.208
  YS02001767YS02001765       171.497       316.629         3.723         0.259         1.848
  YS02006561YS02001783       940.157      1724.564        19.908         1.494         9.934
  YS02001783YS02001784       940.045      1724.394        19.904         1.493         9.932
  YS02001784YS02001785       947.347      1736.086        20.616         1.582        10.378
  YS02001788YS02001790       947.896      1736.973        20.687         1.592        10.423
  YS02001790YS02001791       948.861      1738.525        20.785         1.604        10.485
  YS02001791YS02001793       948.757      1738.356        20.780         1.603        10.482
  YS02001910YS02001907       330.103       599.162         8.235         0.643         4.255
  YS02001786YS02001788       947.511      1736.349        20.643         1.586        10.395
  YS02001915YS02001910       330.182       599.284         8.191         0.636         4.226
  YS02001918YS02001915       157.602       273.546         4.613         0.431         2.514
  YS02001923YS02001920       136.695       239.856         2.627         0.183         1.274
  YS02001926YS02001923       136.391       239.396         2.586         0.178         1.248
  YS02001929YS02001926       136.169       239.027         2.555         0.174         1.228
  YS02001920YS02001918       156.822       272.050         4.569         0.426         2.488
  YS02001629YS02163301       106.752       189.364         2.236         0.144         1.042
  YS02001619YS02001622       146.415       262.976         3.031         0.197         1.414
  YS02001622YS02001625       145.258       261.139         3.003         0.195         1.401
  YS02001625YS02001629       107.902       191.297         2.261         0.146         1.054
  YS02163301YS02001633       106.477       188.898         2.229         0.144         1.040
  YS02163601YS02164001       365.306       652.187         7.181         0.507         3.434
  YS02164001YS02001641       364.837       651.389         7.162         0.505         3.423
  YS02001641YS02001644       365.102       651.762         7.162         0.505         3.422
  YS02001647YS02001649       315.309       561.229         6.248         0.438         2.983
  YS02006553YS02006556       661.682      1208.221        14.311         1.100         7.217
  YS02006556YS02006558       661.640      1208.135        14.279         1.096         7.195
  YSB6556YSB1171              21.958        42.207         0.451         0.038         0.229
  YS02001907YS02006553       661.758      1208.385        14.325         1.102         7.225
  YS02006558YS02006561       940.149      1724.540        19.908         1.493         9.934
  YS02001633YS02163601       366.003       653.271         7.161         0.503         3.418
  YS02001644YS02001647       322.346       574.212         6.368         0.447         3.040
  YS02001745YS02001748       205.825       379.708         4.306         0.277         2.096
  YS02001748YS02001751       205.945       379.524         4.471         0.300         2.205
  YS02001751YS02001754       204.958       377.887         4.453         0.300         2.198
  YS02001754YS02001757       205.703       378.992         4.617         0.322         2.304
  YS02001882YS02001884         3.090         5.340         0.062         0.005         0.031
  YS02001884YS02001887         7.033        12.443         0.137         0.011         0.068
  YS02001890YS02001895       389.384       720.490         7.188         0.539         3.508
  YS02001895YS02001898       389.209       720.252         7.181         0.539         3.504
  YS02001898YS02001901       388.989       719.875         7.176         0.538         3.501
  YS02001901YS02001904       388.852       719.692         7.183         0.540         3.507
  YS02001904YS02001907       389.083       720.050         7.237         0.547         3.541
  YS02001887YS02001890       390.172       721.663         7.242         0.546         3.541
  YS02001652YS02001649       152.048       278.287         3.100         0.223         1.453
  YS02001655YS02001652       152.536       279.074         3.113         0.224         1.460
  YS02001658YS02001655       152.117       278.437         3.027         0.212         1.404
  YS02001661YS02001658       152.854       279.673         3.044         0.214         1.412
  YS02001664YS02001661       175.741       318.128         3.546         0.248         1.642
  YSB1154YSB6556              21.537        41.536         0.403         0.032         0.199
  YSB1174YSB1171              14.654        28.291         0.298         0.024         0.149
  YSB1171HS02004479           38.109        72.919         0.888         0.079         0.465
  HS02004881HS02006253        42.304        82.593         0.924         0.067         0.453
  YS02001793JiankangQianchi       949.021      1738.857        20.783         1.604        10.483
  YS02001757CaochengTiaoxuchi       824.368      1502.498        16.722         1.163         8.121
  WSF200WS02003060           889.674      1647.938        22.550         1.927        11.770
  1                         2431.433      4178.421       153.464        18.009        92.760
  CC-Pump-1                  369.543       680.279         7.392         0.514         3.585
  CC-Pump-2                  213.383       389.763         4.289         0.299         2.080
  JK-Pump-1                  202.022       379.999         4.084         0.302         2.020
  JK-Pump-2                  457.936       861.931         9.106         0.664         4.479
  XR-Pump-1                  365.360       601.416        30.507         3.738        18.845
  XR-Pump-2                  358.550       590.447        29.888         3.661        18.461
  XR-Pump-3                  345.804       570.054        28.664         3.508        17.696
  XR-Pump-4                  345.804       570.054        28.664         3.508        17.696
  

  Analysis begun on:  Wed Jun  2 23:51:18 2021
  Analysis ended on:  Wed Jun  2 23:51:22 2021
  Total elapsed time: 00:00:04