
  EPA STORM WATER MANAGEMENT MODEL - VERSION 5.1 (Build 5.1.013)
  --------------------------------------------------------------

  WARNING 04: minimum elevation drop used for Conduit WS02004404WS02004405
  WARNING 03: negative offset ignored for Link YS02001904YS02001907
  
  *********************************************************
  NOTE: The summary statistics displayed in this report are
  based on results found at every computational time step,  
  not just on results from each reporting time step.
  *********************************************************
  
  ****************
  Analysis Options
  ****************
  Flow Units ............... LPS
  Process Models:
    Rainfall/Runoff ........ YES
    RDII ................... NO
    Snowmelt ............... NO
    Groundwater ............ NO
    Flow Routing ........... YES
    Ponding Allowed ........ NO
    Water Quality .......... YES
  Infiltration Method ...... HORTON
  Flow Routing Method ...... DYNWAVE
  Surcharge Method ......... EXTRAN
  Starting Date ............ 08/28/2015 08:00:00
  Ending Date .............. 08/28/2015 15:50:00
  Antecedent Dry Days ...... 8.0
  Report Time Step ......... 00:01:00
  Wet Time Step ............ 00:01:00
  Dry Time Step ............ 00:01:00
  Routing Time Step ........ 5.00 sec
  Variable Time Step ....... YES
  Maximum Trials ........... 8
  Number of Threads ........ 4
  Head Tolerance ........... 0.001500 m
  
  
  **************************        Volume         Depth
  Runoff Quantity Continuity     hectare-m            mm
  **************************     ---------       -------
  Total Precipitation ......         7.641        16.729
  Evaporation Loss .........         0.000         0.000
  Infiltration Loss ........         1.184         2.592
  Surface Runoff ...........         5.481        12.000
  Final Storage ............         0.977         2.140
  Continuity Error (%) .....        -0.016
  
  
  **************************           COD            SS            TN            TP         NH4-N
  Runoff Quality Continuity             kg            kg            kg            kg            kg
  **************************    ----------    ----------    ----------    ----------    ----------
  Initial Buildup ..........     41378.656     70582.865      1804.177       168.684      1032.807
  Surface Buildup ..........        30.340        63.208         2.449         0.220         1.402
  Wet Deposition ...........         0.000         0.000         0.000         0.000         0.000
  Sweeping Removal .........         0.000         0.000         0.000         0.000         0.000
  Infiltration Loss ........       127.932       247.012         2.452         0.174         1.174
  BMP Removal ..............         0.000         0.000         0.000         0.000         0.000
  Surface Runoff ...........      5553.079     10632.085       107.100         7.411        51.076
  Remaining Buildup ........     35725.936     59763.028      1697.032       161.316       981.940
  Continuity Error (%) .....         0.005         0.006         0.002         0.002         0.002
  
  
  **************************        Volume        Volume
  Flow Routing Continuity        hectare-m      10^6 ltr
  **************************     ---------     ---------
  Dry Weather Inflow .......         0.616         6.165
  Wet Weather Inflow .......         5.479        54.792
  Groundwater Inflow .......         0.000         0.000
  RDII Inflow ..............         0.000         0.000
  External Inflow ..........         0.102         1.024
  External Outflow .........         2.283        22.829
  Flooding Loss ............         3.485        34.852
  Evaporation Loss .........         0.000         0.000
  Exfiltration Loss ........         0.000         0.000
  Initial Stored Volume ....         0.076         0.761
  Final Stored Volume ......         0.646         6.463
  Continuity Error (%) .....        -2.237
  
  
  **************************           COD            SS            TN            TP         NH4-N
  Quality Routing Continuity            kg            kg            kg            kg            kg
  **************************    ----------    ----------    ----------    ----------    ----------
  Dry Weather Inflow .......      1541.147      2465.835       147.950        18.494        92.469
  Wet Weather Inflow .......      5552.052     10630.271       107.079         7.409        51.066
  Groundwater Inflow .......         0.000         0.000         0.000         0.000         0.000
  RDII Inflow ..............         0.000         0.000         0.000         0.000         0.000
  External Inflow ..........       183.412       293.459        17.608         2.201        11.005
  External Outflow .........      2740.781      4913.195       145.286        16.483        86.263
  Flooding Loss ............      3824.172      7243.463        98.452         8.645        51.803
  Exfiltration Loss ........         0.000         0.000         0.000         0.000         0.000
  Mass Reacted .............         0.000         0.000         0.000         0.000         0.000
  Initial Stored Mass ......         0.000         0.000         0.000         0.000         0.000
  Final Stored Mass ........       553.776       966.119        24.451         2.598        14.134
  Continuity Error (%) .....         2.170         1.993         1.631         1.346         1.513
  
  
  *************************
  Highest Continuity Errors
  *************************
  Node YS02001884 (11.56%)
  Node JK-storage (-11.55%)
  Node HS02004842 (10.96%)
  Node HS02004817 (2.13%)
  Node YSB1171 (1.97%)
  
  
  ***************************
  Time-Step Critical Elements
  ***************************
  Link WS02006252WS02006251 (67.12%)
  Link WS02006280WS02006229 (11.22%)
  Link YS02001793JiankangQianchi (6.00%)
  Link WS02004404WS02004405 (3.59%)
  Link WS02006238WS02006235 (2.59%)
  
  
  ********************************
  Highest Flow Instability Indexes
  ********************************
  Link WS02006238WS02006235 (37)
  Link WS02006113WS02006111 (35)
  Link YS02163601YS02164001 (33)
  Link YS02001619YS02001622 (33)
  Link YS02001629YS02163301 (31)
  
  
  *************************
  Routing Time Step Summary
  *************************
  Minimum Time Step           :     0.20 sec
  Average Time Step           :     1.15 sec
  Maximum Time Step           :     5.00 sec
  Percent in Steady State     :    -0.00
  Average Iterations per Step :     4.10
  Percent Not Converging      :    17.91
  
  
  ***************************
  Subcatchment Runoff Summary
  ***************************
  
  ------------------------------------------------------------------------------------------------------------------------------
                            Total      Total      Total      Total     Imperv       Perv      Total       Total     Peak  Runoff
                           Precip      Runon       Evap      Infil     Runoff     Runoff     Runoff      Runoff   Runoff   Coeff
  Subcatchment                 mm         mm         mm         mm         mm         mm         mm    10^6 ltr      LPS
  ------------------------------------------------------------------------------------------------------------------------------
  sub0                      16.73       0.00       0.00       0.71      15.51       0.47      15.98        0.01     3.87   0.955
  sub1                      16.73       0.00       0.00       1.18      14.80       0.66      15.46        0.10    26.74   0.924
  sub2                      16.73       0.00       0.00       4.79      10.46       1.40      11.85        0.11    25.81   0.708
  sub3                      16.73       0.00       0.00       5.01      10.42       1.18      11.60        0.26    56.97   0.693
  sub4                      16.73       0.00       0.00       1.28      14.64       0.56      15.20        0.32    66.74   0.909
  sub5                      16.73       0.00       0.00       0.73      15.46       0.44      15.91        0.18    46.91   0.951
  sub7                      16.73       0.00       0.00       0.93      15.16       0.58      15.74        0.05    14.85   0.941
  sub8                      16.73       0.00       0.00       0.94      15.15       0.57      15.72        0.10    27.42   0.940
  sub9                      16.73       0.00       0.00       0.94      15.15       0.57      15.72        0.08    20.52   0.940
  sub10                     16.73       0.00       0.00       0.83      15.30       0.50      15.81        0.17    46.04   0.945
  sub11                     16.73       0.00       0.00       0.83      15.32       0.51      15.83        0.18    50.62   0.947
  sub12                     16.73       0.00       0.00       1.34      14.51       0.83      15.34        0.13    39.22   0.917
  sub14                     16.73       0.00       0.00       0.94      15.15       0.57      15.72        0.15    40.40   0.939
  sub15                     16.73       0.00       0.00       3.54      11.65       1.48      13.13        0.23    57.86   0.785
  sub16                     16.73       0.00       0.00       3.72      11.17       1.80      12.97        0.14    37.34   0.776
  sub17                     16.73       0.00       0.00       3.62      11.33       1.73      13.07        0.11    30.57   0.781
  sub22                     16.73       0.00       0.00       5.27       9.49       1.92      11.42        0.72   183.11   0.683
  sub23                     16.73       0.00       0.00       4.37      10.50       1.82      12.32        0.59   153.57   0.736
  sub60                     16.73       0.00       0.00       1.74      12.78       0.27      13.05        3.96   446.24   0.780
  sub61                     16.73       0.00       0.00       2.46      12.72       0.38      13.11        4.04   542.53   0.784
  sub62                     16.73       0.00       0.00       1.06      13.91       0.27      14.19        4.36   558.01   0.848
  sub63                     16.73       0.00       0.00       4.39      11.06       0.46      11.52        3.49   496.40   0.689
  sub64                     16.73       0.00       0.00       2.23      12.28       0.28      12.56        3.82   424.95   0.751
  sub65                     16.73       0.00       0.00       1.91      12.51       0.27      12.77        3.93   431.32   0.764
  sub66                     16.73       0.00       0.00       4.54      10.46       0.31      10.78        3.31   388.44   0.644
  sub67                     16.73       0.00       0.00       1.01      14.45       0.32      14.78        4.56   675.76   0.883
  sub68                     16.73       0.00       0.00       1.95      13.33       0.39      13.71        4.22   589.75   0.820
  sub69                     16.73       0.00       0.00       2.00      13.62       0.51      14.12        3.30   542.07   0.844
  sub70                     16.73      14.42       0.00       8.47      19.01       2.12      21.13        4.84   534.50   0.678
  sub71                     16.73       0.00       0.00       1.08      13.65       0.25      13.90        3.28   394.68   0.831
  sub72                     16.73       0.00       0.00       1.02      11.50       0.15      11.65        2.37   206.66   0.697
  1                         16.73      20.58       0.00       1.37      22.38       7.20      29.58        6.95   612.18   0.793
  2                         16.73       0.00       0.00       3.02       4.04       3.18       7.22        2.89   331.58   0.431
  
  
  ****************************
  Subcatchment Washoff Summary
  ****************************
  
  ------------------------------------------------------------------------------------------
                                 COD            SS            TN            TP         NH4-N
  Subcatchment                    kg            kg            kg            kg            kg
  ------------------------------------------------------------------------------------------
  sub0                         3.641         7.161         0.064         0.005         0.031
  sub1                        15.670        31.767         0.296         0.021         0.143
  sub2                        10.304        20.454         0.214         0.015         0.099
  sub3                        25.293        49.815         0.517         0.036         0.240
  sub4                        36.168        74.260         0.714         0.044         0.344
  sub5                        35.763        71.366         0.649         0.050         0.316
  sub7                         7.894        16.212         0.150         0.010         0.073
  sub8                        11.755        24.726         0.234         0.014         0.113
  sub9                        10.113        20.966         0.196         0.013         0.095
  sub10                       29.347        59.341         0.545         0.040         0.265
  sub11                       28.395        58.052         0.536         0.037         0.260
  sub12                       24.463        49.072         0.450         0.034         0.218
  sub14                       21.697        44.543         0.414         0.028         0.200
  sub15                       29.696        58.821         0.572         0.042         0.270
  sub16                       19.246        38.050         0.367         0.028         0.174
  sub17                       17.687        34.653         0.330         0.026         0.156
  sub22                       95.915       186.896         1.820         0.139         0.857
  sub23                       54.382       109.539         1.141         0.076         0.527
  sub60                      353.946       679.507         6.988         0.437         3.357
  sub61                      439.694       840.112         8.188         0.570         3.952
  sub62                      449.789       873.118         8.744         0.564         4.209
  sub63                      328.186       618.356         6.505         0.463         3.037
  sub64                      450.923       835.561         8.299         0.611         3.976
  sub65                      460.536       856.685         8.527         0.617         4.090
  sub66                      259.426       485.146         5.248         0.348         2.463
  sub67                      667.180      1281.067        12.075         0.900         5.853
  sub68                      479.473       924.466         9.153         0.628         4.389
  sub69                      429.286       835.450         8.068         0.576         3.873
  sub70                      758.299      1478.307        15.194         1.074         7.173
  sub71                      296.267       580.619         6.027         0.356         2.890
  sub72                      247.757       452.371         4.612         0.320         2.223
  1                          576.907      1130.948        11.723         0.829         5.484
  2                           65.566       118.435         1.802         0.109         0.773
  ------------------------------------------------------------------------------------------
  System                    6740.663     12945.841       130.362         9.060        62.122
  
  
  ******************
  Node Depth Summary
  ******************
  
  ---------------------------------------------------------------------------------
                                 Average  Maximum  Maximum  Time of Max    Reported
                                   Depth    Depth      HGL   Occurrence   Max Depth
  Node                 Type       Meters   Meters   Meters  days hr:min      Meters
  ---------------------------------------------------------------------------------
  WS02001211           JUNCTION     0.78     0.85     5.69     0  01:59        0.85
  WS02001212           JUNCTION     0.49     0.58     5.65     0  01:59        0.58
  WS02001213           JUNCTION     0.74     0.86     5.62     0  01:58        0.86
  WS02003069           JUNCTION     0.55     0.73     5.31     0  01:58        0.73
  WS02003072           JUNCTION     0.61     0.77     5.14     0  01:58        0.77
  WS02003073           JUNCTION     0.37     0.48     4.55     0  01:59        0.48
  WS02003060           JUNCTION     0.48     0.64     5.57     0  01:57        0.64
  WS02003066           JUNCTION     0.27     0.39     5.94     0  01:55        0.39
  WS02003059           JUNCTION     0.79     0.91     5.60     0  01:59        0.91
  WS02003067           JUNCTION     0.64     0.82     6.14     0  01:54        0.82
  WS02004401           JUNCTION     0.80     1.25     7.25     0  01:53        1.24
  WS02004402           JUNCTION     0.82     1.24     7.20     0  01:53        1.23
  WS02004403           JUNCTION     0.83     1.21     7.14     0  01:54        1.21
  WS02004404           JUNCTION     0.91     1.26     7.11     0  01:54        1.25
  WS02004406           JUNCTION     0.90     1.17     7.00     0  01:54        1.17
  WS02004409           JUNCTION     0.60     0.98     6.75     0  01:54        0.98
  WS02004410           JUNCTION     0.62     0.96     6.68     0  01:54        0.96
  WS02004411           JUNCTION     0.63     0.94     6.62     0  01:54        0.94
  WS02004412           JUNCTION     0.63     0.91     6.55     0  01:54        0.91
  WS02004413           JUNCTION     0.79     1.03     6.50     0  01:54        1.03
  WS02004405           JUNCTION     0.90     1.23     7.08     0  01:54        1.23
  WS02006109           JUNCTION     0.91     1.69     8.31     0  01:53        1.68
  WS02006110           JUNCTION     0.87     1.48     8.07     0  01:52        1.47
  WS02006111           JUNCTION     0.30     0.91     7.61     0  01:52        0.90
  WS02006112           JUNCTION     0.99     1.58     7.46     0  01:53        1.57
  WS02006113           JUNCTION     0.42     0.95     7.84     0  01:53        0.94
  WS02006115           JUNCTION     0.70     1.24     7.37     0  01:52        1.23
  WS02006116           JUNCTION     0.78     1.28     7.32     0  01:52        1.27
  WS02006230           JUNCTION     0.97     1.91     8.65     0  01:53        1.91
  WS02006231           JUNCTION     0.71     1.55     8.67     0  01:52        1.53
  WS02006232           JUNCTION     0.86     1.64     8.68     0  01:52        1.64
  WS02006234           JUNCTION     0.82     1.54     8.69     0  01:51        1.53
  WS02006235           JUNCTION     0.87     1.55     8.71     0  01:53        1.54
  WS02006238           JUNCTION     0.90     1.56     8.71     0  01:51        1.56
  WS02006240           JUNCTION     0.81     1.41     8.71     0  01:51        1.40
  WS02006242           JUNCTION     0.87     1.55     8.82     0  01:36        1.43
  WS02006243           JUNCTION     0.76     1.43     8.85     0  01:38        1.27
  WS02006245           JUNCTION     0.73     1.41     8.89     0  01:38        1.21
  WS02006247           JUNCTION     0.75     1.39     8.89     0  01:38        1.19
  WS02006248           JUNCTION     0.69     1.10     8.69     0  01:37        1.10
  WS02006249           JUNCTION     0.70     1.09     8.69     0  01:38        1.09
  WS02006239           JUNCTION     0.86     1.50     8.71     0  01:52        1.50
  WS02006251           JUNCTION     0.69     1.39     9.06     0  01:39        1.22
  WS02006252           JUNCTION     0.44     0.86     9.10     0  01:39        0.76
  WS02006253           JUNCTION     0.72     1.49     9.13     0  01:39        1.27
  WS02006256           JUNCTION     1.89     2.35     9.28     0  00:00        2.35
  WS02004138           JUNCTION     0.19     0.20     7.45     0  00:00        0.19
  WS02004139           JUNCTION     0.72     0.79     5.70     0  01:59        0.79
  WS02004407           JUNCTION     0.27     0.40     6.71     0  01:53        0.40
  WS02006228           JUNCTION     0.94     1.87     8.52     0  01:54        1.85
  WS02006229           JUNCTION     0.93     1.93     8.63     0  01:53        1.93
  WS02006280           JUNCTION     0.07     0.30     8.57     0  01:54        0.30
  WS02006284           JUNCTION     0.37     0.66     9.06     0  01:54        0.66
  WS02006287           JUNCTION     0.10     0.40     9.36     0  01:54        0.40
  WSF200               JUNCTION     0.27     0.44     5.67     0  01:55        0.44
  HS02004901           JUNCTION     0.13     0.38    10.21     0  01:53        0.38
  HS02004881           JUNCTION     0.01     0.05     9.08     0  01:54        0.05
  HS02004876           JUNCTION     0.04     0.17     9.20     0  01:54        0.17
  HS02004870           JUNCTION     0.02     0.10     9.38     0  01:54        0.10
  HS02004862           JUNCTION     0.02     0.11     9.50     0  01:55        0.11
  HS02004856           JUNCTION     0.08     0.15     9.58     0  01:54        0.15
  HS02004852           JUNCTION     0.01     0.08     9.59     0  01:55        0.08
  HS02004848           JUNCTION     0.01     0.07     9.67     0  01:54        0.07
  HS02004842           JUNCTION     0.34     0.40     9.67     0  01:54        0.40
  HS02004837           JUNCTION     0.03     0.09     9.67     0  01:54        0.09
  HS02004830           JUNCTION     0.04     0.11     9.58     0  01:55        0.11
  HS02004824           JUNCTION     0.03     0.15     9.55     0  01:54        0.15
  HS02004817           JUNCTION     0.45     0.71     9.56     0  01:54        0.71
  HS02004807           JUNCTION     0.13     0.38     9.55     0  01:55        0.38
  HS02004802           JUNCTION     0.17     0.41     9.54     0  01:55        0.41
  HS02004799           JUNCTION     0.13     0.48     9.69     0  01:53        0.48
  HS02004792           JUNCTION     0.04     0.22     9.75     0  01:53        0.22
  HS02004788           JUNCTION     0.03     0.16    10.06     0  01:54        0.16
  HS02004785           JUNCTION     0.05     0.25    10.15     0  01:53        0.25
  HS02004777           JUNCTION     0.15     0.40    10.20     0  01:53        0.40
  HS02004770           JUNCTION     0.12     0.37    10.21     0  01:53        0.37
  HS02004480           JUNCTION     0.09     0.39     9.64     0  01:53        0.39
  HS02004479           JUNCTION     0.12     0.43     9.64     0  01:53        0.43
  HS02004478           JUNCTION     0.07     0.29     9.52     0  01:54        0.29
  YS02001745           JUNCTION     0.76     0.92     8.44     0  02:44        0.92
  YS02001748           JUNCTION     1.16     1.36     8.44     0  02:43        1.36
  YS02001751           JUNCTION     1.34     1.55     8.43     0  02:52        1.55
  YS02001754           JUNCTION     1.60     1.82     8.43     0  02:35        1.81
  YS02001762           JUNCTION     1.80     2.02     8.42     0  03:53        2.02
  YS02001765           JUNCTION     1.75     1.97     8.42     0  03:53        1.96
  YS02001767           JUNCTION     1.72     1.93     8.42     0  02:35        1.93
  YS02001770           JUNCTION     1.71     1.92     8.42     0  02:34        1.91
  YS02001774           JUNCTION     1.78     1.98     8.40     0  02:52        1.98
  YS02001779           JUNCTION     1.52     1.68     8.37     0  01:46        1.68
  YS02001882           JUNCTION     0.62     1.68     8.39     0  01:52        1.63
  YS02001884           JUNCTION     0.72     1.77     8.38     0  01:52        1.73
  YS02001759           JUNCTION     1.83     2.06     8.43     0  03:56        2.06
  YS02001887           JUNCTION     0.79     1.82     8.36     0  01:52        1.81
  YS02001890           JUNCTION     0.82     1.81     8.32     0  01:52        1.81
  YS02001898           JUNCTION     0.59     1.58     8.31     0  01:52        1.56
  YS02001901           JUNCTION     0.71     1.69     8.30     0  01:52        1.67
  YS02001904           JUNCTION     0.69     1.64     8.27     0  01:52        1.63
  YS02001907           JUNCTION     1.02     1.96     8.25     0  01:52        1.96
  YS02001910           JUNCTION     0.81     1.84     8.35     0  01:54        1.84
  YS02001915           JUNCTION     0.61     1.70     8.42     0  01:54        1.70
  YS02001918           JUNCTION     0.36     1.48     8.55     0  01:53        1.48
  YS02001619           JUNCTION     1.31     1.49     8.42     0  02:12        1.48
  YS02001629           JUNCTION     1.66     1.85     8.40     0  03:54        1.85
  YS02001641           JUNCTION     1.76     1.93     8.37     0  03:54        1.93
  YS02001644           JUNCTION     1.76     1.92     8.35     0  01:47        1.92
  YS02001652           JUNCTION     1.61     2.03     8.63     0  04:13        1.89
  YS02001655           JUNCTION     1.37     2.00     8.85     0  04:13        1.68
  YS02001920           JUNCTION     0.46     1.60     8.61     0  01:53        1.59
  YS02001923           JUNCTION     0.29     1.39     8.65     0  01:53        1.38
  YS02001926           JUNCTION     0.34     1.23     8.68     0  01:53        1.22
  YS02001929           JUNCTION     0.20     1.04     8.73     0  01:53        1.00
  YS02001658           JUNCTION     1.10     1.92     9.06     0  04:13        1.40
  YS02001661           JUNCTION     0.87     2.13     9.53     0  03:56        1.17
  YS02001664           JUNCTION     0.39     0.56     8.49     0  04:08        0.56
  YS02001622           JUNCTION     1.33     1.50     8.41     0  02:13        1.50
  YS02001633           JUNCTION     1.75     1.95     8.41     0  03:54        1.94
  YS02001649           JUNCTION     1.81     2.05     8.44     0  03:35        2.05
  YS02001757           JUNCTION     1.93     2.16     8.42     0  03:35        2.15
  YS02001895           JUNCTION     0.58     1.57     8.31     0  01:54        1.56
  YS02001625           JUNCTION     1.61     1.78     8.38     0  01:46        1.78
  YS02163301           JUNCTION     1.69     1.88     8.40     0  01:47        1.88
  YS02163601           JUNCTION     1.80     2.00     8.39     0  03:54        1.98
  YS02164001           JUNCTION     1.74     1.93     8.38     0  01:47        1.91
  YS02001647           JUNCTION     1.59     1.80     8.41     0  04:02        1.79
  YSB1154              JUNCTION     0.26     0.58     9.64     0  01:53        0.58
  YSB6556              JUNCTION     0.16     0.47     9.64     0  01:53        0.47
  YSB1174              JUNCTION     0.22     0.53     9.64     0  01:53        0.53
  YSB1171              JUNCTION     0.42     0.74     9.64     0  01:53        0.74
  YS02006553           JUNCTION     1.02     2.00     8.29     0  01:52        1.97
  YS02006561           JUNCTION     0.36     1.27     7.93     0  01:52        1.09
  YS02006556           JUNCTION     0.98     2.02     8.33     0  01:52        1.93
  YS02006558           JUNCTION     1.03     2.07     8.34     0  01:52        1.97
  YS02001783           JUNCTION     0.59     1.64     7.78     0  01:52        1.48
  YS02001784           JUNCTION     0.60     1.58     7.65     0  01:52        1.42
  YS02001786           JUNCTION     0.53     1.57     7.60     0  01:52        1.27
  YS02001788           JUNCTION     0.46     1.64     7.62     0  01:52        1.13
  YS02001790           JUNCTION     0.58     1.96     7.60     0  06:33        1.29
  YS02001791           JUNCTION     0.54     2.17     7.64     0  04:41        1.27
  YS02001793           JUNCTION     0.74     2.04     6.87     0  04:41        1.80
  WSC                  OUTFALL      0.37     0.48     1.15     0  01:59        0.48
  JK-storage           STORAGE      2.75     5.80     6.60     0  01:52        5.80
  CC-storage           STORAGE      1.17     1.40     8.40     0  03:14        1.40
  XR-storage           STORAGE      7.03     7.72     5.72     0  02:06        7.72
  
  
  *******************
  Node Inflow Summary
  *******************
  
  -------------------------------------------------------------------------------------------------
                                  Maximum  Maximum                  Lateral       Total        Flow
                                  Lateral    Total  Time of Max      Inflow      Inflow     Balance
                                   Inflow   Inflow   Occurrence      Volume      Volume       Error
  Node                 Type           LPS      LPS  days hr:min    10^6 ltr    10^6 ltr     Percent
  -------------------------------------------------------------------------------------------------
  WS02001211           JUNCTION      7.35   389.32     0  03:20       0.207        10.3       0.404
  WS02001212           JUNCTION      0.00   391.05     0  03:19           0        10.2       0.252
  WS02001213           JUNCTION      0.00   392.70     0  03:20           0        10.2       0.293
  WS02003069           JUNCTION      0.32  1352.22     0  01:58     0.00902        22.9       0.177
  WS02003072           JUNCTION      0.00  1352.26     0  01:58           0        22.9       0.206
  WS02003073           JUNCTION      1.82  1354.17     0  01:59      0.0513        22.9       0.242
  WS02003060           JUNCTION     16.53  1351.96     0  01:58       0.466          23       0.165
  WS02003066           JUNCTION      0.00   952.96     0  01:55           0        12.4       0.046
  WS02003059           JUNCTION      0.00   395.01     0  06:08           0        10.2       0.417
  WS02003067           JUNCTION      0.00   952.86     0  01:55           0        12.4       0.089
  WS02004401           JUNCTION      0.00   953.93     0  01:53           0        12.7       0.201
  WS02004402           JUNCTION      0.00   953.74     0  01:53           0        12.6       0.186
  WS02004403           JUNCTION      0.00   953.71     0  01:54           0        12.6       0.168
  WS02004404           JUNCTION      0.16   953.89     0  01:54     0.00457        12.6       0.121
  WS02004406           JUNCTION      0.00   953.92     0  01:54           0        12.6       0.296
  WS02004409           JUNCTION      0.00   953.12     0  01:53           0        12.5       0.175
  WS02004410           JUNCTION      0.00   952.79     0  01:54           0        12.5       0.192
  WS02004411           JUNCTION      0.00   952.76     0  01:54           0        12.5       0.193
  WS02004412           JUNCTION      0.00   952.77     0  01:55           0        12.5       0.201
  WS02004413           JUNCTION      0.00   952.86     0  01:55           0        12.4       0.288
  WS02004405           JUNCTION      0.04   955.03     0  01:56     0.00107        12.6       0.180
  WS02006109           JUNCTION      1.23   923.29     0  01:54      0.0347        12.7       0.163
  WS02006110           JUNCTION      0.00   923.39     0  01:54           0        12.7       0.170
  WS02006111           JUNCTION      0.00   923.30     0  01:54           0        12.6       0.045
  WS02006112           JUNCTION     30.57   953.42     0  01:53       0.112        12.8       0.270
  WS02006113           JUNCTION      0.00   923.17     0  01:54           0        12.7       0.101
  WS02006115           JUNCTION      0.00   953.40     0  01:53           0        12.7       0.206
  WS02006116           JUNCTION      0.00   954.19     0  01:53           0        12.7       0.177
  WS02006230           JUNCTION     10.28   534.73     0  06:51        0.29        9.61       0.186
  WS02006231           JUNCTION      0.00   524.33     0  06:51           0        9.33       0.145
  WS02006232           JUNCTION      0.00   524.13     0  06:51           0        9.35       0.197
  WS02006234           JUNCTION      0.00   523.86     0  06:51           0        9.36       0.112
  WS02006235           JUNCTION      0.00   525.09     0  06:51           0        9.43       0.134
  WS02006238           JUNCTION      0.00   418.75     0  06:00           0        5.73       0.155
  WS02006240           JUNCTION      0.00   417.20     0  06:00           0         5.7       0.277
  WS02006242           JUNCTION      0.00   416.85     0  06:00           0         5.7       0.325
  WS02006243           JUNCTION      0.00   416.58     0  06:00           0        5.69       0.224
  WS02006245           JUNCTION      0.00   416.26     0  06:00           0         5.7       0.217
  WS02006247           JUNCTION      0.00   416.33     0  06:00           0         5.7       0.179
  WS02006248           JUNCTION      0.00   416.70     0  06:00           0        5.73       0.109
  WS02006249           JUNCTION      0.00   557.05     0  01:54           0        7.54       0.169
  WS02006239           JUNCTION      0.00   418.29     0  06:00           0        5.71       0.232
  WS02006251           JUNCTION      0.08   558.05     0  01:53     0.00217        7.61       0.139
  WS02006252           JUNCTION      0.00   400.00     0  01:50           0        6.94       0.006
  WS02006253           JUNCTION      3.87   162.55     0  01:38      0.0129       0.673       0.827
  WS02006256           JUNCTION      0.00   983.00     0  02:00           0        12.5      -0.008
  WS02004138           JUNCTION      0.00   380.00     0  00:00           0        10.1       0.062
  WS02004139           JUNCTION      0.32   395.85     0  00:00     0.00905        10.1       0.461
  WS02004407           JUNCTION      0.00   953.45     0  01:53           0        12.5       0.077
  WS02006228           JUNCTION      0.00   922.10     0  01:53           0        12.7       0.130
  WS02006229           JUNCTION      0.00   922.40     0  01:53           0        12.7       0.121
  WS02006280           JUNCTION      0.00   736.09     0  01:54           0        3.11       0.005
  WS02006284           JUNCTION      0.10   735.83     0  01:54      0.0027        3.11       0.020
  WS02006287           JUNCTION      0.00   735.64     0  01:54           0        3.11       0.023
  WSF200               JUNCTION      0.00   953.00     0  01:55           0        12.4       0.047
  HS02004901           JUNCTION     37.34    37.34     0  01:51       0.136       0.136       1.312
  HS02004881           JUNCTION     14.85   153.29     0  01:54       0.053       0.601       0.071
  HS02004876           JUNCTION     26.74   139.06     0  01:54       0.103       0.549       0.099
  HS02004870           JUNCTION     27.42   112.65     0  01:54         0.1       0.446       0.025
  HS02004862           JUNCTION     26.01    86.18     0  01:54       0.116       0.346       0.050
  HS02004856           JUNCTION     20.52    60.23     0  01:54      0.0756       0.231       0.628
  HS02004852           JUNCTION      0.00    40.37     0  01:54           0       0.155       0.036
  HS02004848           JUNCTION     56.97    56.97     0  01:56       0.261       0.261       0.018
  HS02004842           JUNCTION      0.00    18.18     0  02:06           0       0.119      12.305
  HS02004837           JUNCTION     52.39    67.87     0  01:54       0.353       0.459       0.177
  HS02004830           JUNCTION      0.15    67.98     0  01:54     0.00423       0.449       0.275
  HS02004824           JUNCTION     66.79   134.69     0  01:56       0.318       0.767       0.071
  HS02004817           JUNCTION      0.60   137.00     0  01:57      0.0169       0.783       2.175
  HS02004807           JUNCTION     50.62   184.21     0  01:55       0.184       0.952       0.461
  HS02004802           JUNCTION      0.00   183.93     0  01:56           0        0.95       0.417
  HS02004799           JUNCTION     40.40   470.75     0  01:53        0.15        1.87       0.159
  HS02004792           JUNCTION    183.39   430.98     0  01:53       0.729        1.72       0.024
  HS02004788           JUNCTION     59.53   248.80     0  01:53       0.273       0.991       0.039
  HS02004785           JUNCTION      0.15   189.56     0  01:53     0.00423        0.72       0.069
  HS02004777           JUNCTION      0.03   189.72     0  01:52    0.000846        0.72       0.727
  HS02004770           JUNCTION    153.57   190.38     0  01:52       0.587       0.722       0.430
  HS02004480           JUNCTION      0.00   554.31     0  01:53           0        2.18       0.044
  HS02004479           JUNCTION      0.00    83.76     0  01:53           0       0.323       0.228
  HS02004478           JUNCTION      0.00   735.59     0  01:54           0        3.11       0.010
  YS02001745           JUNCTION    446.25   446.25     0  02:16        3.95        3.95       0.264
  YS02001748           JUNCTION      0.04   454.11     0  02:16     0.00127        3.95       0.576
  YS02001751           JUNCTION      0.01   454.25     0  02:16     0.00031        3.92       0.616
  YS02001754           JUNCTION      0.26   453.87     0  02:16     0.00733        3.91       0.632
  YS02001762           JUNCTION      0.00   425.63     0  01:55           0        2.22       0.970
  YS02001765           JUNCTION      0.00   426.75     0  01:55           0        2.22       1.104
  YS02001767           JUNCTION      0.54   426.59     0  01:55      0.0151        2.25       1.614
  YS02001770           JUNCTION    558.16   589.81     0  02:59        4.36        4.85       0.649
  YS02001774           JUNCTION      0.00   590.28     0  02:58           0        3.07       0.817
  YS02001779           JUNCTION      0.01   590.50     0  02:58    0.000141        3.04       0.511
  YS02001882           JUNCTION      0.00    20.54     0  01:49           0      0.0176      16.285
  YS02001884           JUNCTION      0.00    39.62     0  01:48           0      0.0543      13.073
  YS02001759           JUNCTION    542.57   885.00     0  01:58        4.04        5.75       0.399
  YS02001887           JUNCTION    676.21   677.30     0  02:13        4.57         4.6       0.195
  YS02001890           JUNCTION      0.00   677.62     0  02:12           0        4.55       0.211
  YS02001898           JUNCTION      0.00   541.48     0  01:52           0        4.27       0.075
  YS02001901           JUNCTION      0.00   540.02     0  01:52           0        4.26       0.170
  YS02001904           JUNCTION      0.00   541.24     0  01:52           0        4.26       0.158
  YS02001907           JUNCTION      0.00  1198.58     0  01:54           0        9.97       0.248
  YS02001910           JUNCTION      0.00   683.71     0  01:54           0        5.72       0.212
  YS02001915           JUNCTION    394.70   683.89     0  01:54        3.28        5.77       0.111
  YS02001918           JUNCTION      0.00   384.55     0  01:54           0        2.52       0.063
  YS02001619           JUNCTION    388.44   388.44     0  02:16         3.3         3.3       0.373
  YS02001629           JUNCTION      0.00   210.16     0  01:47           0        1.42       2.061
  YS02001641           JUNCTION      0.00   444.70     0  01:46           0        5.09       0.410
  YS02001644           JUNCTION    424.99  1397.32     0  03:00        3.82        12.6       0.207
  YS02001652           JUNCTION      0.00   527.26     0  02:13           0        3.45       0.672
  YS02001655           JUNCTION      0.15   526.22     0  02:13     0.00434        3.48       0.734
  YS02001920           JUNCTION      2.87   383.49     0  01:54      0.0809         2.5       0.121
  YS02001923           JUNCTION      0.04   309.75     0  01:55     0.00106         2.4       0.039
  YS02001926           JUNCTION      0.05   275.70     0  01:54     0.00147        2.38       0.130
  YS02001929           JUNCTION    206.66   206.66     0  03:01        2.37        2.37       0.020
  YS02001658           JUNCTION      0.00   537.06     0  02:02           0         3.5       0.728
  YS02001661           JUNCTION      0.00   766.27     0  02:02           0        3.79      -0.421
  YS02001664           JUNCTION    496.40   496.40     0  02:16        3.49         3.8       0.155
  YS02001622           JUNCTION      0.00   389.27     0  02:15           0        3.29       0.971
  YS02001633           JUNCTION    431.52   437.81     0  01:47        3.93        5.23       0.614
  YS02001649           JUNCTION      0.00   928.42     0  01:58           0        6.82       0.544
  YS02001757           JUNCTION      0.00  2160.24     0  01:59           0        12.2       0.752
  YS02001895           JUNCTION      0.00   541.77     0  01:52           0        4.27       0.131
  YS02001625           JUNCTION      0.00   435.16     0  02:16           0        3.34       1.185
  YS02163301           JUNCTION      0.00   218.71     0  01:46           0        1.42       1.729
  YS02163601           JUNCTION      0.11   439.04     0  01:46      0.0031         5.1       0.591
  YS02164001           JUNCTION      0.00   441.46     0  01:46           0        5.08       0.399
  YS02001647           JUNCTION      0.00   664.49     0  01:47           0        5.55       0.516
  YSB1154              JUNCTION     46.91    46.91     0  01:52        0.18       0.181       0.806
  YSB6556              JUNCTION      0.00    46.64     0  01:52           0       0.182       0.696
  YSB1174              JUNCTION     39.22    39.22     0  01:50       0.134       0.134       0.964
  YSB1171              JUNCTION      0.00    84.01     0  01:52           0       0.322       2.009
  YS02006553           JUNCTION      0.00   716.21     0  03:35           0        7.33       0.219
  YS02006561           JUNCTION      0.00  1118.36     0  01:52           0        11.5       0.007
  YS02006556           JUNCTION      0.00   716.26     0  03:35           0        7.33       0.160
  YS02006558           JUNCTION    590.63  1119.05     0  01:52        4.24        11.5       0.046
  YS02001783           JUNCTION      0.00  1085.66     0  01:52           0        11.5       0.023
  YS02001784           JUNCTION      1.06  1086.28     0  01:52      0.0299        11.5       0.034
  YS02001786           JUNCTION      0.06  1085.52     0  01:52     0.00159        11.5       0.032
  YS02001788           JUNCTION      0.07  1082.29     0  01:52       0.002        11.5       0.019
  YS02001790           JUNCTION      0.15  1054.36     0  01:52     0.00437        11.5       0.019
  YS02001791           JUNCTION      0.00  1094.17     0  01:51           0        11.5       0.009
  YS02001793           JUNCTION      0.00  1005.15     0  01:52           0        11.5      -0.007
  WSC                  OUTFALL       0.00  1354.32     0  01:59           0        22.8       0.000
  JK-storage           STORAGE       0.00  1003.56     0  01:52           0        11.7     -10.352
  CC-storage           STORAGE       0.00  2161.99     0  01:59           0        10.5       0.596
  XR-storage           STORAGE    1054.62  1054.62     0  03:01        15.5        16.1      -0.001
  
  
  **********************
  Node Surcharge Summary
  **********************
  
  Surcharging occurs when water rises above the top of the highest conduit.
  ---------------------------------------------------------------------
                                               Max. Height   Min. Depth
                                   Hours       Above Crown    Below Rim
  Node                 Type      Surcharged         Meters       Meters
  ---------------------------------------------------------------------
  WS02004401           JUNCTION        1.50          0.252        1.408
  WS02004402           JUNCTION        1.53          0.242        1.498
  WS02004403           JUNCTION        1.53          0.214        1.816
  WS02004404           JUNCTION        1.66          0.259        2.521
  WS02004406           JUNCTION        1.61          0.172        2.278
  WS02004413           JUNCTION        0.58          0.029        2.171
  WS02004405           JUNCTION        1.63          0.228        2.572
  WS02006109           JUNCTION        5.17          0.870        0.950
  WS02006110           JUNCTION        3.57          0.570        1.280
  WS02006111           JUNCTION        0.43          0.096        1.774
  WS02006112           JUNCTION        3.99          0.578        1.102
  WS02006113           JUNCTION        0.48          0.146        1.784
  WS02006115           JUNCTION        0.90          0.225        2.025
  WS02006116           JUNCTION        0.97          0.220        2.070
  WS02006230           JUNCTION        3.23          0.827        0.743
  WS02006231           JUNCTION        3.94          0.837        0.693
  WS02006232           JUNCTION        5.19          0.943        0.537
  WS02006234           JUNCTION        4.99          0.816        0.424
  WS02006235           JUNCTION        5.08          0.837        0.453
  WS02006238           JUNCTION        5.13          0.844        0.586
  WS02006240           JUNCTION        5.04          0.702        0.688
  WS02006242           JUNCTION        5.12          0.820        0.000
  WS02006243           JUNCTION        4.65          0.723        0.047
  WS02006245           JUNCTION        4.43          0.697        0.153
  WS02006247           JUNCTION        4.45          0.677        0.083
  WS02006248           JUNCTION        3.96          0.380        0.000
  WS02006249           JUNCTION        4.09          0.390        0.000
  WS02006239           JUNCTION        5.06          0.758        0.532
  WS02006251           JUNCTION        2.86          0.358        0.822
  WS02006252           JUNCTION        4.28          0.460        0.640
  WS02006253           JUNCTION        2.90          0.450        2.030
  WS02006256           JUNCTION        7.22          2.050        0.000
  WS02006228           JUNCTION        5.16          1.035        1.165
  HS02004817           JUNCTION        0.14          0.011        1.729
  YS02001748           JUNCTION        6.05          0.281        0.909
  YS02001751           JUNCTION        6.08          0.554        0.646
  YS02001754           JUNCTION        6.13          0.775        0.375
  YS02001762           JUNCTION        6.19          1.025        0.125
  YS02001765           JUNCTION        6.18          0.973        0.127
  YS02001767           JUNCTION        6.18          0.933        0.097
  YS02001770           JUNCTION        6.17          0.891        0.029
  YS02001774           JUNCTION        6.19          0.980        0.070
  YS02001779           JUNCTION        6.13          0.680        0.000
  YS02001882           JUNCTION        1.79          0.677        0.153
  YS02001884           JUNCTION        1.81          0.706        0.164
  YS02001759           JUNCTION        6.20          1.062        0.148
  YS02001887           JUNCTION        1.86          0.774        0.176
  YS02001890           JUNCTION        1.88          0.760        0.000
  YS02001898           JUNCTION        1.75          0.548        0.192
  YS02001901           JUNCTION        1.83          0.688        0.182
  YS02001904           JUNCTION        1.82          0.642        0.208
  YS02001907           JUNCTION        2.39          0.950        0.000
  YS02001910           JUNCTION        1.92          0.843        0.257
  YS02001915           JUNCTION        1.77          0.704        0.296
  YS02001918           JUNCTION        1.62          0.483        0.327
  YS02001619           JUNCTION        6.09          0.489        0.121
  YS02001629           JUNCTION        6.09          0.469        0.001
  YS02001641           JUNCTION        6.18          0.935        0.165
  YS02001644           JUNCTION        6.18          0.920        0.000
  YS02001652           JUNCTION        6.15          1.005        0.125
  YS02001655           JUNCTION        6.10          0.998        0.202
  YS02001920           JUNCTION        1.65          0.597        0.543
  YS02001923           JUNCTION        0.01          0.180        0.640
  YS02001926           JUNCTION        0.01          0.231        0.669
  YS02001929           JUNCTION        0.01          0.040        0.740
  YS02001658           JUNCTION        6.06          0.922        0.378
  YS02001661           JUNCTION        0.19          1.060        0.330
  YS02001622           JUNCTION        6.09          0.504        0.116
  YS02001633           JUNCTION        6.17          0.931        0.129
  YS02001649           JUNCTION        6.19          1.050        0.000
  YS02001757           JUNCTION        6.23          1.163        0.047
  YS02001895           JUNCTION        1.77          0.567        0.183
  YS02001625           JUNCTION        6.15          0.780        0.000
  YS02163301           JUNCTION        6.17          0.883        0.147
  YS02163601           JUNCTION        6.20          0.997        0.083
  YS02164001           JUNCTION        6.17          0.927        0.173
  YS02001647           JUNCTION        6.15          0.797        0.103
  YS02006553           JUNCTION        2.44          1.004        0.186
  YS02006561           JUNCTION        1.64          0.466        0.684
  YS02006556           JUNCTION        2.10          0.982        0.368
  YS02006558           JUNCTION        2.07          0.972        0.428
  YS02001783           JUNCTION        1.88          0.837        0.763
  YS02001784           JUNCTION        1.84          0.782        0.708
  YS02001786           JUNCTION        1.73          0.769        0.661
  YS02001788           JUNCTION        1.68          0.843        0.637
  YS02001790           JUNCTION        2.44          1.157        0.000
  YS02001791           JUNCTION        2.53          1.371        0.549
  YS02001793           JUNCTION        2.80          1.038        1.562
  
  
  *********************
  Node Flooding Summary
  *********************
  
  Flooding refers to all water that overflows a node, whether it ponds or not.
  --------------------------------------------------------------------------
                                                             Total   Maximum
                                 Maximum   Time of Max       Flood    Ponded
                        Hours       Rate    Occurrence      Volume     Depth
  Node                 Flooded       LPS   days hr:min    10^6 ltr    Meters
  --------------------------------------------------------------------------
  WS02006242              0.01    106.73      0  01:36       0.000     0.000
  WS02006248              0.29     56.76      0  01:37       0.023     0.000
  WS02006249              2.79    491.60      0  01:56       1.796     0.000
  WS02006256              4.93    828.74      0  02:00       8.721     0.000
  YS02001779              3.28    590.48      0  02:59       3.024     0.000
  YS02001890              0.80    161.02      0  02:13       0.273     0.000
  YS02001907              1.51    716.31      0  02:15       2.636     0.000
  YS02001644              4.81   1397.31      0  03:00      10.703     0.000
  YS02001649              0.01     24.40      0  04:13       0.000     0.000
  YS02001625              2.15    435.02      0  02:16       1.975     0.000
  YS02001790              0.01    103.67      0  06:33       0.000     0.000
  JK-storage              0.60    504.00      0  01:52       0.546     0.000
  XR-storage              4.70    674.56      0  03:01       5.155     0.000
  
  
  **********************
  Storage Volume Summary
  **********************
  
  --------------------------------------------------------------------------------------------------
                         Average     Avg  Evap Exfil       Maximum     Max    Time of Max    Maximum
                          Volume    Pcnt  Pcnt  Pcnt        Volume    Pcnt     Occurrence    Outflow
  Storage Unit           1000 m3    Full  Loss  Loss       1000 m3    Full    days hr:min        LPS
  --------------------------------------------------------------------------------------------------
  JK-storage               0.138      47     0     0         0.291     100       0  01:52     983.00
  CC-storage               3.272      21     0     0         3.891      25       0  03:14     400.00
  XR-storage               0.844      91     0     0         0.926     100       0  02:06     380.00
  
  
  ***********************
  Outfall Loading Summary
  ***********************
  
  ---------------------------------------------------------------------------------------------------------------------------------
                         Flow       Avg       Max       Total         Total         Total         Total         Total         Total
                         Freq      Flow      Flow      Volume           COD            SS            TN            TP         NH4-N
  Outfall Node           Pcnt       LPS       LPS    10^6 ltr            kg            kg            kg            kg            kg
  ---------------------------------------------------------------------------------------------------------------------------------
  WSC                   99.98    857.61   1354.32      22.829      2740.921      4913.444       145.294        16.484        86.268
  ---------------------------------------------------------------------------------------------------------------------------------
  System                99.98    857.61   1354.32      22.829      2740.921      4913.444       145.294        16.484        86.268
  
  
  ********************
  Link Flow Summary
  ********************
  
  -----------------------------------------------------------------------------
                                 Maximum  Time of Max   Maximum    Max/    Max/
                                  |Flow|   Occurrence   |Veloc|    Full    Full
  Link                 Type          LPS  days hr:min     m/sec    Flow   Depth
  -----------------------------------------------------------------------------
  WS02003066WSF200     CONDUIT    953.00     0  01:55      3.10    0.16    0.32
  WS02006287WS02006284 CONDUIT    735.73     0  01:54      2.45    0.34    0.41
  WS02006284WS02006280 CONDUIT    736.09     0  01:54      2.68    0.31    0.38
  WS02006280WS02006229 CONDUIT    736.12     0  01:54      3.66    0.16    0.53
  WS02006229WS02006228 CONDUIT    922.10     0  01:53      1.83    3.05    1.00
  WS02006256WS02006235 CONDUIT    288.92     0  00:00      4.23    3.06    1.00
  WS02006253WS02006251 CONDUIT    157.64     0  01:53      0.56    0.47    1.00
  WS02006252WS02006251 CONDUIT    404.45     0  06:51      3.22    1.48    1.00
  WS02006251WS02006249 CONDUIT    557.05     0  01:54      1.45    1.61    1.00
  WS02006249WS02006248 CONDUIT    416.70     0  06:00      1.19    2.28    1.00
  WS02006248WS02006247 CONDUIT    416.33     0  06:00      1.16    0.91    1.00
  WS02006247WS02006245 CONDUIT    416.26     0  06:00      1.13    3.30    1.00
  WS02006245WS02006243 CONDUIT    416.58     0  06:00      1.17    1.23    1.00
  WS02006243WS02006242 CONDUIT    416.85     0  06:00      1.08    0.89    1.00
  WS02006242WS02006240 CONDUIT    417.20     0  06:00      1.08    1.66    1.00
  WS02006240WS02006239 CONDUIT    418.29     0  06:00      1.09    1.32    1.00
  WS02006239WS02006238 CONDUIT    418.75     0  06:00      1.09    1.34    1.00
  WS02006238WS02006235 CONDUIT    420.41     0  06:00      1.45    0.94    1.00
  WS02006235WS02006234 CONDUIT    523.86     0  06:51      1.36    5.53    1.00
  WS02006234WS02006232 CONDUIT    524.13     0  06:51      1.39    1.06    1.00
  WS02006232WS02006231 CONDUIT    524.33     0  06:51      1.36    1.10    1.00
  WS02006231WS02006230 CONDUIT    524.45     0  06:51      1.36    7.96    1.00
  WS02006230WS02006229 CONDUIT    535.30     0  06:51      1.39   11.91    1.00
  WS02006228WS02006109 CONDUIT    922.06     0  01:54      1.83    4.03    1.00
  WS02006116WS02004401 CONDUIT    953.93     0  01:53      1.21    1.31    1.00
  WS02006115WS02006116 CONDUIT    954.19     0  01:53      1.21    1.22    1.00
  WS02006113WS02006111 CONDUIT    923.30     0  01:54      2.66    1.11    1.00
  WS02006112WS02006115 CONDUIT    953.40     0  01:53      1.21    0.56    1.00
  WS02006111WS02006112 CONDUIT    923.46     0  01:53      1.84    0.44    1.00
  WS02006110WS02006113 CONDUIT    923.17     0  01:54      1.84    0.84    1.00
  WS02006109WS02006110 CONDUIT    923.39     0  01:54      1.84    1.78    1.00
  WS02004411WS02004412 CONDUIT    952.77     0  01:55      1.26    1.35    0.93
  WS02004401WS02004402 CONDUIT    953.74     0  01:53      1.21    1.14    1.00
  WS02004413WS02003067 CONDUIT    952.86     0  01:55      1.57    0.41    0.72
  WS02004412WS02004413 CONDUIT    952.86     0  01:55      1.23    0.64    0.96
  WS02004410WS02004411 CONDUIT    952.76     0  01:54      1.24    1.30    0.95
  WS02004409WS02004410 CONDUIT    952.79     0  01:54      1.23    1.23    0.97
  WS02004407WS02004409 CONDUIT    953.12     0  01:53      1.72    0.34    0.69
  WS02004406WS02004407 CONDUIT    953.45     0  01:53      1.62    0.43    0.70
  WS02004405WS02004406 CONDUIT    953.92     0  01:54      1.21    1.88    1.00
  WS02004404WS02004405 CONDUIT    954.99     0  01:56      1.22    9.36    1.00
  WS02004403WS02004404 CONDUIT    953.73     0  01:54      1.21    0.69    1.00
  WS02004402WS02004403 CONDUIT    953.71     0  01:54      1.21    1.37    1.00
  WS02004139WS02001211 CONDUIT    381.98     0  03:20      0.90    0.48    0.64
  WS02004138WS02004139 CONDUIT    395.52     0  00:00      3.64    0.08    0.47
  WS02003067WS02003066 CONDUIT    952.96     0  01:55      1.66    0.31    0.51
  WS02001213WS02003059 CONDUIT    395.01     0  06:08      0.89    0.65    0.88
  WS02001212WS02001213 CONDUIT    392.70     0  03:20      1.32    0.61    0.56
  WS02001211WS02001212 CONDUIT    391.05     0  03:19      0.78    0.30    0.72
  WS02003072WS02003073 CONDUIT   1352.35     0  01:59      1.97    2.92    0.58
  WS02003069WS02003072 CONDUIT   1352.26     0  01:58      1.83    0.65    0.62
  WS02003060WS02003069 CONDUIT   1351.90     0  01:58      2.03    0.53    0.57
  WS02003059WS02003060 CONDUIT    398.50     0  06:18      0.95    0.26    0.78
  HS02004901HS02004770 CONDUIT     36.84     0  01:52      0.10    0.14    0.54
  HS02004876HS02004881 CONDUIT    139.08     0  01:54      1.26    1.48    0.16
  HS02004870HS02004876 CONDUIT    112.62     0  01:54      0.85    0.07    0.19
  HS02004842HS02004848 CONDUIT     18.18     0  02:06      0.08    0.01    0.34
  HS02004837HS02004842 CONDUIT     18.64     0  02:07      0.42    0.01    0.35
  HS02004830HS02004837 CONDUIT     67.83     0  01:54      0.68    0.07    0.14
  HS02004824HS02004830 CONDUIT     68.06     0  01:56      0.62    0.09    0.18
  HS02004817HS02004824 CONDUIT    136.40     0  01:57      0.32    0.06    0.60
  HS02004770HS02004777 CONDUIT    189.69     0  01:52      0.49    0.35    0.55
  HS02004799HS02004480 CONDUIT    470.63     0  01:53      1.09    0.59    0.62
  HS02004792HS02004799 CONDUIT    430.87     0  01:53      1.22    0.26    0.50
  HS02004788HS02004792 CONDUIT    248.73     0  01:54      1.29    0.16    0.28
  HS02004785HS02004788 CONDUIT    189.53     0  01:53      0.92    1.43    0.30
  HS02004777HS02004785 CONDUIT    189.41     0  01:53      0.59    0.23    0.46
  HS02004480HS02004478 CONDUIT    554.36     0  01:53      1.59    2.33    0.50
  HS02004479HS02004480 CONDUIT     83.70     0  01:53      0.37    0.08    0.59
  HS02004862HS02004870 CONDUIT     86.18     0  01:55      0.82    0.09    0.15
  HS02004848HS02004852 CONDUIT     40.37     0  01:54      0.54    0.05    0.11
  HS02004856HS02004862 CONDUIT     60.18     0  01:54      0.61    0.06    0.14
  HS02004852HS02004856 CONDUIT     40.43     0  01:55      0.35    0.05    0.17
  HS02004802HS02004478 CONDUIT    184.68     0  01:57      0.53    0.16    0.50
  HS02004478WS02006287 CONDUIT    735.64     0  01:54      2.18    0.21    0.38
  HS02004817HS02004807 CONDUIT    137.20     0  01:57      0.26    0.08    0.77
  HS02004807HS02004802 CONDUIT    183.93     0  01:56      0.47    0.35    0.56
  YS02001759YS02001757 CONDUIT    884.68     0  01:58      1.13    0.63    1.00
  YS02001762YS02001759 CONDUIT    424.73     0  01:55      0.54    0.49    1.00
  YS02001765YS02001762 CONDUIT    425.63     0  01:55      0.54    0.40    1.00
  YS02001770YS02001767 CONDUIT    426.06     0  01:55      0.54    1.69    1.00
  YS02001774YS02001770 CONDUIT    590.28     0  02:58      0.75    0.38    1.00
  YS02001779YS02001774 CONDUIT    590.50     0  02:58      0.75    0.30    1.00
  YS02001649YS02001757 CONDUIT    929.87     0  01:58      1.18    0.56    1.00
  YS02001767YS02001765 CONDUIT    426.75     0  01:55      0.54    0.54    1.00
  YS02006561YS02001783 CONDUIT   1085.66     0  01:52      2.27    0.56    1.00
  YS02001783YS02001784 CONDUIT   1085.22     0  01:52      2.16    1.50    1.00
  YS02001784YS02001785 CONDUIT   1085.46     0  01:52      2.16    2.53    1.00
  YS02001788YS02001790 CONDUIT   1054.20     0  01:52      2.57    0.78    1.00
  YS02001790YS02001791 CONDUIT   1094.17     0  01:51      3.16    1.19    1.00
  YS02001791YS02001793 CONDUIT   1005.15     0  01:52      6.05    0.43    1.00
  YS02001910YS02001907 CONDUIT    684.53     0  01:54      0.87    0.39    1.00
  YS02001786YS02001788 CONDUIT   1082.22     0  01:52      2.35    2.09    1.00
  YS02001915YS02001910 CONDUIT    683.71     0  01:54      0.87    0.34    1.00
  YS02001918YS02001915 CONDUIT    386.34     0  01:54      0.49    0.21    1.00
  YS02001923YS02001920 CONDUIT    380.62     0  01:54      0.82    0.17    1.00
  YS02001926YS02001923 CONDUIT    309.71     0  01:55      0.92    0.44    1.00
  YS02001929YS02001926 CONDUIT    275.65     0  01:54      0.98    0.13    1.00
  YS02001920YS02001918 CONDUIT    384.55     0  01:54      0.77    0.37    1.00
  YS02001629YS02163301 CONDUIT    218.71     0  01:46      0.28    0.27    1.00
  YS02001619YS02001622 CONDUIT    389.27     0  02:15      0.74    0.57    1.00
  YS02001622YS02001625 CONDUIT    388.42     0  02:16      0.49    0.21    1.00
  YS02001625YS02001629 CONDUIT    210.16     0  01:47      0.29    0.10    1.00
  YS02163301YS02001633 CONDUIT    222.70     0  01:46      0.28    0.21    1.00
  YS02163601YS02164001 CONDUIT    441.46     0  01:46      0.56    0.39    1.00
  YS02164001YS02001641 CONDUIT    444.70     0  01:46      0.57    0.61    1.00
  YS02001641YS02001644 CONDUIT    446.75     0  01:46      0.57    1.44    1.00
  YS02001647YS02001649 CONDUIT    663.71     0  01:47      0.85    0.35    1.00
  YS02006553YS02006556 CONDUIT    716.26     0  03:35      0.91    0.61    1.00
  YS02006556YS02006558 CONDUIT    716.36     0  03:35      0.91    0.57    1.00
  YSB6556YSB1171       CONDUIT     46.61     0  01:54      0.14    0.05    0.84
  YS02001907YS02006553 CONDUIT    716.21     0  03:35      0.80    0.84    1.00
  YS02006558YS02006561 CONDUIT   1118.36     0  01:52      3.96    2.47    1.00
  YS02001633YS02163601 CONDUIT    438.93     0  01:46      0.56    0.46    1.00
  YS02001644YS02001647 CONDUIT    664.49     0  01:47      0.85    0.39    1.00
  YS02001745YS02001748 CONDUIT    454.06     0  02:16      1.67    0.17    0.96
  YS02001748YS02001751 CONDUIT    454.24     0  02:16      1.21    0.23    1.00
  YS02001751YS02001754 CONDUIT    453.61     0  02:16      1.02    0.22    1.00
  YS02001754YS02001757 CONDUIT    452.96     0  02:16      0.58    0.18    1.00
  YS02001882YS02001884 CONDUIT     20.54     0  01:49      0.16    0.02    1.00
  YS02001884YS02001887 CONDUIT     39.62     0  01:48      0.12    0.05    1.00
  YS02001890YS02001895 CONDUIT    541.77     0  01:52      0.69    0.25    1.00
  YS02001895YS02001898 CONDUIT    541.48     0  01:52      0.69    0.94    1.00
  YS02001898YS02001901 CONDUIT    540.02     0  01:52      0.69    0.35    1.00
  YS02001901YS02001904 CONDUIT    541.24     0  01:52      0.69    0.84    1.00
  YS02001904YS02001907 CONDUIT    539.99     0  01:52      0.69    0.19    1.00
  YS02001887YS02001890 CONDUIT    677.62     0  02:12      0.86    1.16    1.00
  YS02001652YS02001649 CONDUIT    529.14     0  02:13      0.71    0.26    1.00
  YS02001655YS02001652 CONDUIT    527.26     0  02:13      1.09    0.26    1.00
  YS02001658YS02001655 CONDUIT    526.07     0  02:13      1.41    0.22    1.00
  YS02001661YS02001658 CONDUIT    537.06     0  02:02      1.78    0.21    1.00
  YS02001664YS02001661 CONDUIT    766.27     0  02:02      1.69    0.24    0.76
  YSB1154YSB6556       CONDUIT     46.64     0  01:52      0.16    0.08    0.75
  YSB1174YSB1171       CONDUIT     38.37     0  01:50      0.11    0.06    0.87
  YSB1171HS02004479    CONDUIT     83.76     0  01:53      0.54    0.06    0.70
  HS02004881HS02006253 CONDUIT    153.29     0  01:54      2.03    0.03    0.54
  YS02001793JiankangQianchi CONDUIT   1003.56     0  01:52     16.70    0.08    1.00
  YS02001757CaochengTiaoxuchi CONDUIT   2161.99     0  01:59      3.72    0.95    1.00
  WSF200WS02003060     CONDUIT    953.11     0  01:55      2.19    0.21    0.45
  1                    CONDUIT   1354.32     0  01:59      3.60    0.47    0.48
  CC-Pump-1            PUMP       200.00     0  01:33              1.00
  CC-Pump-2            PUMP       200.00     0  01:50              1.00
  JK-Pump-1            PUMP       300.00     0  00:00              1.00
  JK-Pump-2            PUMP       683.00     0  02:00              1.00
  XR-Pump-1            PUMP        95.00     0  00:00              1.00
  XR-Pump-2            PUMP        95.00     0  00:00              1.00
  XR-Pump-3            PUMP        95.00     0  00:00              1.00
  XR-Pump-4            PUMP        95.00     0  00:00              1.00
  
  
  ***************************
  Flow Classification Summary
  ***************************
  
  -------------------------------------------------------------------------------------
                      Adjusted    ---------- Fraction of Time in Flow Class ---------- 
                       /Actual         Up    Down  Sub   Sup   Up    Down  Norm  Inlet 
  Conduit               Length    Dry  Dry   Dry   Crit  Crit  Crit  Crit  Ltd   Ctrl  
  -------------------------------------------------------------------------------------
  WS02003066WSF200        1.00   0.01  0.02  0.00  0.00  0.97  0.00  0.00  0.39  0.00
  WS02006287WS02006284    1.00   0.03  0.01  0.00  0.64  0.31  0.00  0.00  0.63  0.00
  WS02006284WS02006280    1.00   0.04  0.00  0.00  0.00  0.00  0.00  0.96  0.00  0.00
  WS02006280WS02006229    1.00   0.04  0.00  0.00  0.03  0.04  0.00  0.89  0.03  0.00
  WS02006229WS02006228    1.00   0.00  0.00  0.00  1.00  0.00  0.00  0.00  0.00  0.00
  WS02006256WS02006235    1.00   0.00  0.00  0.00  1.00  0.00  0.00  0.00  0.00  0.00
  WS02006253WS02006251    1.00   0.02  0.02  0.00  0.96  0.00  0.01  0.00  0.00  0.00
  WS02006252WS02006251    1.00   0.06  0.00  0.00  0.25  0.00  0.69  0.00  0.00  0.00
  WS02006251WS02006249    1.00   0.00  0.00  0.00  1.00  0.00  0.00  0.00  0.16  0.00
  WS02006249WS02006248    1.00   0.00  0.01  0.00  0.94  0.00  0.05  0.00  0.00  0.00
  WS02006248WS02006247    1.00   0.01  0.00  0.00  0.99  0.00  0.00  0.00  0.07  0.00
  WS02006247WS02006245    1.00   0.00  0.00  0.00  0.99  0.00  0.00  0.00  0.00  0.00
  WS02006245WS02006243    1.00   0.00  0.00  0.00  0.97  0.00  0.00  0.03  0.00  0.00
  WS02006243WS02006242    1.00   0.00  0.00  0.00  1.00  0.00  0.00  0.00  0.15  0.00
  WS02006242WS02006240    1.00   0.00  0.00  0.00  0.99  0.00  0.00  0.00  0.00  0.00
  WS02006240WS02006239    1.00   0.00  0.00  0.00  0.97  0.00  0.00  0.03  0.01  0.00
  WS02006239WS02006238    1.00   0.00  0.00  0.00  1.00  0.00  0.00  0.00  0.08  0.00
  WS02006238WS02006235    1.00   0.00  0.00  0.00  1.00  0.00  0.00  0.00  0.00  0.00
  WS02006235WS02006234    1.00   0.00  0.00  0.00  0.98  0.00  0.02  0.00  0.00  0.00
  WS02006234WS02006232    1.00   0.00  0.00  0.00  1.00  0.00  0.00  0.00  0.04  0.00
  WS02006232WS02006231    1.00   0.00  0.00  0.00  1.00  0.00  0.00  0.00  0.00  0.00
  WS02006231WS02006230    1.00   0.00  0.00  0.00  0.79  0.00  0.21  0.00  0.00  0.00
  WS02006230WS02006229    1.00   0.00  0.00  0.00  1.00  0.00  0.00  0.00  0.00  0.00
  WS02006228WS02006109    1.00   0.00  0.00  0.00  1.00  0.00  0.00  0.00  0.00  0.00
  WS02006116WS02004401    1.00   0.01  0.00  0.00  0.99  0.00  0.00  0.00  0.00  0.00
  WS02006115WS02006116    1.00   0.01  0.00  0.00  0.99  0.00  0.00  0.00  0.00  0.00
  WS02006113WS02006111    1.00   0.01  0.00  0.00  0.08  0.91  0.00  0.00  0.12  0.00
  WS02006112WS02006115    1.00   0.01  0.00  0.00  0.99  0.00  0.00  0.00  0.00  0.00
  WS02006111WS02006112    1.00   0.01  0.00  0.00  0.99  0.00  0.00  0.00  0.77  0.00
  WS02006110WS02006113    1.00   0.00  0.00  0.00  0.99  0.00  0.00  0.00  0.00  0.00
  WS02006109WS02006110    1.00   0.00  0.00  0.00  0.99  0.00  0.00  0.00  0.00  0.00
  WS02004411WS02004412    1.00   0.02  0.00  0.00  0.98  0.00  0.00  0.00  0.00  0.00
  WS02004401WS02004402    1.00   0.01  0.00  0.00  0.99  0.00  0.00  0.00  0.00  0.00
  WS02004413WS02003067    1.00   0.02  0.01  0.00  0.00  0.00  0.98  0.00  0.00  0.00
  WS02004412WS02004413    1.00   0.02  0.00  0.00  0.98  0.00  0.00  0.00  0.01  0.00
  WS02004410WS02004411    1.00   0.02  0.00  0.00  0.98  0.00  0.00  0.00  0.00  0.00
  WS02004409WS02004410    1.00   0.02  0.00  0.00  0.98  0.00  0.00  0.00  0.02  0.00
  WS02004407WS02004409    1.00   0.02  0.00  0.00  0.98  0.00  0.00  0.00  0.95  0.00
  WS02004406WS02004407    1.00   0.00  0.01  0.00  0.98  0.00  0.00  0.00  0.00  0.00
  WS02004405WS02004406    1.00   0.00  0.00  0.00  1.00  0.00  0.00  0.00  0.00  0.00
  WS02004404WS02004405    1.00   0.00  0.00  0.00  1.00  0.00  0.00  0.00  0.00  0.00
  WS02004403WS02004404    1.00   0.00  0.01  0.00  0.99  0.00  0.00  0.00  0.00  0.00
  WS02004402WS02004403    1.00   0.01  0.00  0.00  0.99  0.00  0.00  0.00  0.00  0.00
  WS02004139WS02001211    1.00   0.00  0.00  0.00  1.00  0.00  0.00  0.00  0.00  0.00
  WS02004138WS02004139    1.00   0.00  0.00  0.00  1.00  0.00  0.00  0.00  1.00  0.00
  WS02003067WS02003066    1.00   0.02  0.00  0.00  0.97  0.00  0.00  0.00  0.00  0.00
  WS02001213WS02003059    1.00   0.00  0.00  0.00  1.00  0.00  0.00  0.00  0.00  0.00
  WS02001212WS02001213    1.00   0.00  0.00  0.00  0.94  0.00  0.05  0.00  0.00  0.00
  WS02001211WS02001212    1.00   0.00  0.00  0.00  1.00  0.00  0.00  0.00  0.00  0.00
  WS02003072WS02003073    1.00   0.00  0.00  0.00  0.00  0.00  0.00  1.00  0.00  0.00
  WS02003069WS02003072    1.00   0.00  0.00  0.00  1.00  0.00  0.00  0.00  0.06  0.00
  WS02003060WS02003069    1.00   0.00  0.00  0.00  0.99  0.01  0.00  0.00  0.05  0.00
  WS02003059WS02003060    1.00   0.00  0.00  0.00  1.00  0.00  0.00  0.00  0.01  0.00
  HS02004901HS02004770    1.00   0.04  0.00  0.00  0.96  0.00  0.00  0.00  0.00  0.00
  HS02004876HS02004881    1.00   0.01  0.00  0.00  0.90  0.10  0.00  0.00  0.00  0.00
  HS02004870HS02004876    1.00   0.00  0.00  0.00  0.99  0.00  0.00  0.00  0.95  0.00
  HS02004842HS02004848    1.00   0.00  0.04  0.00  0.96  0.00  0.00  0.00  0.56  0.00
  HS02004837HS02004842    1.00   0.00  0.00  0.00  1.00  0.00  0.00  0.00  0.11  0.00
  HS02004830HS02004837    1.00   0.00  0.00  0.00  1.00  0.00  0.00  0.00  0.99  0.00
  HS02004824HS02004830    1.00   0.00  0.00  0.00  1.00  0.00  0.00  0.00  0.03  0.00
  HS02004817HS02004824    1.00   0.00  0.00  0.00  1.00  0.00  0.00  0.00  0.92  0.00
  HS02004770HS02004777    1.00   0.00  0.04  0.00  0.96  0.00  0.00  0.00  0.02  0.00
  HS02004799HS02004480    1.00   0.00  0.01  0.00  0.96  0.00  0.03  0.00  0.00  0.00
  HS02004792HS02004799    1.00   0.00  0.00  0.00  1.00  0.00  0.00  0.00  0.98  0.00
  HS02004788HS02004792    1.00   0.00  0.00  0.00  1.00  0.00  0.00  0.00  0.98  0.00
  HS02004785HS02004788    1.00   0.00  0.00  0.00  1.00  0.00  0.00  0.00  0.00  0.00
  HS02004777HS02004785    1.00   0.00  0.00  0.00  1.00  0.00  0.00  0.00  0.11  0.00
  HS02004480HS02004478    1.00   0.04  0.00  0.00  0.70  0.00  0.00  0.27  0.00  0.00
  HS02004479HS02004480    1.00   0.01  0.00  0.00  0.99  0.00  0.00  0.00  0.11  0.00
  HS02004862HS02004870    1.00   0.00  0.00  0.00  1.00  0.00  0.00  0.00  0.03  0.00
  HS02004848HS02004852    1.00   0.04  0.00  0.00  0.96  0.00  0.00  0.00  0.79  0.00
  HS02004856HS02004862    1.00   0.00  0.04  0.00  0.96  0.00  0.00  0.00  0.84  0.00
  HS02004852HS02004856    1.00   0.04  0.00  0.00  0.96  0.00  0.00  0.00  0.77  0.00
  HS02004802HS02004478    1.00   0.04  0.00  0.00  0.96  0.00  0.00  0.00  0.02  0.00
  HS02004478WS02006287    1.00   0.04  0.00  0.00  0.78  0.18  0.00  0.00  0.62  0.00
  HS02004817HS02004807    1.00   0.00  0.04  0.00  0.96  0.00  0.00  0.00  0.01  0.00
  HS02004807HS02004802    1.00   0.04  0.00  0.00  0.96  0.00  0.00  0.00  0.00  0.00
  YS02001759YS02001757    1.00   0.00  0.00  0.00  1.00  0.00  0.00  0.00  0.15  0.00
  YS02001762YS02001759    1.00   0.00  0.00  0.00  1.00  0.00  0.00  0.00  0.02  0.00
  YS02001765YS02001762    1.00   0.00  0.00  0.00  1.00  0.00  0.00  0.00  0.13  0.00
  YS02001770YS02001767    1.00   0.00  0.00  0.00  1.00  0.00  0.00  0.00  0.00  0.00
  YS02001774YS02001770    1.00   0.00  0.04  0.00  0.96  0.00  0.00  0.00  0.02  0.00
  YS02001779YS02001774    1.00   0.00  0.00  0.00  1.00  0.00  0.00  0.00  0.17  0.00
  YS02001649YS02001757    1.00   0.00  0.00  0.00  1.00  0.00  0.00  0.00  0.15  0.00
  YS02001767YS02001765    1.00   0.00  0.00  0.00  1.00  0.00  0.00  0.00  0.00  0.00
  YS02006561YS02001783    1.00   0.05  0.00  0.00  0.37  0.58  0.00  0.00  0.42  0.00
  YS02001783YS02001784    1.00   0.00  0.05  0.00  0.95  0.00  0.00  0.00  0.00  0.00
  YS02001784YS02001785    1.00   0.00  0.00  0.00  1.00  0.00  0.00  0.00  0.16  0.00
  YS02001788YS02001790    1.00   0.00  0.00  0.00  0.43  0.57  0.00  0.00  0.36  0.00
  YS02001790YS02001791    1.00   0.00  0.00  0.00  0.40  0.60  0.00  0.00  0.43  0.00
  YS02001791YS02001793    1.00   0.00  0.00  0.00  0.43  0.57  0.00  0.00  0.02  0.00
  YS02001910YS02001907    1.00   0.00  0.00  0.00  0.99  0.00  0.00  0.01  0.12  0.00
  YS02001786YS02001788    1.00   0.00  0.00  0.00  0.42  0.58  0.00  0.00  0.00  0.00
  YS02001915YS02001910    1.00   0.00  0.00  0.00  0.99  0.01  0.00  0.00  0.13  0.00
  YS02001918YS02001915    1.00   0.00  0.00  0.00  0.99  0.01  0.00  0.00  0.51  0.00
  YS02001923YS02001920    1.00   0.00  0.00  0.00  1.00  0.00  0.00  0.00  0.74  0.00
  YS02001926YS02001923    1.00   0.00  0.02  0.00  0.21  0.00  0.76  0.00  0.00  0.00
  YS02001929YS02001926    1.00   0.00  0.04  0.00  0.96  0.00  0.00  0.00  0.65  0.00
  YS02001920YS02001918    1.00   0.00  0.00  0.00  1.00  0.00  0.00  0.00  0.00  0.00
  YS02001629YS02163301    1.00   0.04  0.00  0.00  0.96  0.00  0.00  0.00  0.00  0.00
  YS02001619YS02001622    1.00   0.04  0.00  0.00  0.96  0.00  0.00  0.00  0.00  0.00
  YS02001622YS02001625    1.00   0.04  0.00  0.00  0.96  0.00  0.00  0.00  0.03  0.00
  YS02001625YS02001629    1.00   0.04  0.01  0.00  0.94  0.00  0.01  0.00  0.00  0.00
  YS02163301YS02001633    1.00   0.00  0.04  0.00  0.96  0.00  0.00  0.00  0.00  0.00
  YS02163601YS02164001    1.00   0.00  0.02  0.00  0.98  0.00  0.00  0.00  0.00  0.00
  YS02164001YS02001641    1.00   0.00  0.02  0.00  0.98  0.00  0.00  0.00  0.06  0.00
  YS02001641YS02001644    1.00   0.00  0.00  0.00  1.00  0.00  0.00  0.00  0.00  0.00
  YS02001647YS02001649    1.00   0.00  0.04  0.00  0.96  0.00  0.00  0.00  0.01  0.00
  YS02006553YS02006556    1.00   0.01  0.00  0.00  0.99  0.00  0.00  0.00  0.03  0.00
  YS02006556YS02006558    1.00   0.00  0.00  0.00  1.00  0.00  0.00  0.00  0.00  0.00
  YSB6556YSB1171          1.00   0.01  0.02  0.00  0.97  0.00  0.00  0.00  0.00  0.00
  YS02001907YS02006553    1.00   0.00  0.01  0.00  0.99  0.00  0.00  0.00  0.00  0.00
  YS02006558YS02006561    1.00   0.05  0.00  0.00  0.21  0.75  0.00  0.00  0.43  0.00
  YS02001633YS02163601    1.00   0.00  0.00  0.00  1.00  0.00  0.00  0.00  0.15  0.00
  YS02001644YS02001647    1.00   0.00  0.04  0.00  0.96  0.00  0.00  0.00  0.00  0.00
  YS02001745YS02001748    1.00   0.00  0.00  0.00  0.91  0.01  0.00  0.08  0.01  0.00
  YS02001748YS02001751    1.00   0.00  0.00  0.00  0.98  0.02  0.00  0.00  0.14  0.00
  YS02001751YS02001754    1.00   0.00  0.00  0.00  0.95  0.00  0.00  0.05  0.01  0.00
  YS02001754YS02001757    1.00   0.00  0.00  0.00  1.00  0.00  0.00  0.00  0.17  0.00
  YS02001882YS02001884    1.00   0.04  0.00  0.00  0.96  0.00  0.00  0.00  0.00  0.00
  YS02001884YS02001887    1.00   0.02  0.01  0.00  0.97  0.00  0.00  0.00  0.00  0.00
  YS02001890YS02001895    1.00   0.00  0.04  0.00  0.96  0.00  0.00  0.00  0.00  0.00
  YS02001895YS02001898    1.00   0.04  0.00  0.00  0.95  0.00  0.01  0.00  0.00  0.00
  YS02001898YS02001901    1.00   0.04  0.00  0.00  0.96  0.00  0.00  0.00  0.01  0.00
  YS02001901YS02001904    1.00   0.04  0.00  0.00  0.96  0.00  0.00  0.00  0.00  0.00
  YS02001904YS02001907    1.00   0.00  0.04  0.00  0.96  0.00  0.00  0.00  0.00  0.00
  YS02001887YS02001890    1.00   0.00  0.00  0.00  0.99  0.00  0.01  0.00  0.00  0.00
  YS02001652YS02001649    1.00   0.00  0.00  0.00  1.00  0.00  0.00  0.00  0.15  0.00
  YS02001655YS02001652    1.00   0.00  0.00  0.00  0.95  0.00  0.00  0.05  0.01  0.00
  YS02001658YS02001655    1.00   0.00  0.04  0.00  0.94  0.02  0.00  0.00  0.02  0.00
  YS02001661YS02001658    1.00   0.04  0.00  0.00  0.91  0.05  0.00  0.00  0.01  0.00
  YS02001664YS02001661    1.00   0.04  0.00  0.00  0.92  0.05  0.00  0.00  0.10  0.00
  YSB1154YSB6556          1.00   0.03  0.00  0.00  0.97  0.00  0.00  0.00  0.01  0.00
  YSB1174YSB1171          1.00   0.02  0.01  0.00  0.97  0.00  0.00  0.00  0.00  0.00
  YSB1171HS02004479       1.00   0.01  0.00  0.00  0.98  0.00  0.00  0.00  0.10  0.00
  HS02004881HS02006253    1.00   0.02  0.00  0.00  0.90  0.01  0.00  0.08  0.77  0.00
  YS02001793JiankangQianchi    1.00   0.00  0.00  0.00  0.59  0.41  0.00  0.00  0.27  0.00
  YS02001757CaochengTiaoxuchi    1.00   0.00  0.06  0.00  0.91  0.03  0.00  0.00  0.00  0.00
  WSF200WS02003060        1.00   0.00  0.01  0.00  0.97  0.02  0.00  0.00  0.24  0.00
  1                       1.00   0.00  0.00  0.00  0.00  1.00  0.00  0.00  0.54  0.00
  
  
  *************************
  Conduit Surcharge Summary
  *************************
  
  ----------------------------------------------------------------------------
                                                           Hours        Hours 
                         --------- Hours Full --------   Above Full   Capacity
  Conduit                Both Ends  Upstream  Dnstream   Normal Flow   Limited
  ----------------------------------------------------------------------------
  WS02006229WS02006228        5.16      5.20      5.16      5.67         5.16
  WS02006256WS02006235        6.56      6.57      7.22      5.27         0.01
  WS02006253WS02006251        3.88      3.88      4.01      0.01         0.03
  WS02006252WS02006251        3.32      3.32      4.27      3.87         0.01
  WS02006251WS02006249        3.92      3.92      4.09      3.03         2.89
  WS02006249WS02006248        3.96      3.96      4.09      5.30         0.01
  WS02006248WS02006247        4.07      4.07      4.45      0.01         0.01
  WS02006247WS02006245        4.43      4.50      4.43      5.60         4.04
  WS02006245WS02006243        4.48      4.48      4.65      0.46         0.67
  WS02006243WS02006242        4.74      4.74      5.12      0.01         0.01
  WS02006242WS02006240        5.04      5.04      5.16      3.31         0.01
  WS02006240WS02006239        5.05      5.06      5.06      1.84         1.24
  WS02006239WS02006238        5.11      5.13      5.13      1.94         1.47
  WS02006238WS02006235        5.10      5.10      5.18      0.01         0.05
  WS02006235WS02006234        4.99      4.99      5.08      6.52         0.02
  WS02006234WS02006232        5.03      5.03      5.19      1.59         1.55
  WS02006232WS02006231        3.94      3.94      5.19      1.80         0.01
[...]
  YS02001779YS02001774        6.13      6.13      6.19      0.01         0.01
  YS02001649YS02001757        6.19      6.19      6.23      0.01         0.01
  YS02001767YS02001765        6.18      6.18      6.18      0.01         0.01
  YS02006561YS02001783        1.64      1.64      1.88      0.01         0.01
  YS02001783YS02001784        1.84      1.88      1.84      2.15         1.84
  YS02001784YS02001785        1.73      1.84      1.73      2.91         1.73
  YS02001788YS02001790        1.68      1.68      2.44      0.01         0.01
  YS02001790YS02001791        2.43      2.44      2.53      1.82         1.76
  YS02001791YS02001793        2.53      2.53      2.89      0.01         0.01
  YS02001910YS02001907        1.92      1.92      2.39      0.01         0.01
  YS02001786YS02001788        1.68      1.73      1.68      2.55         1.68
  YS02001915YS02001910        1.77      1.77      1.92      0.01         0.01
  YS02001918YS02001915        1.62      1.62      1.77      0.01         0.01
  YS02001923YS02001920        1.46      1.46      1.65      0.01         0.01
  YS02001926YS02001923        0.01      0.01      0.01      0.01         0.01
  YS02001929YS02001926        0.01      0.01      0.01      0.01         0.01
  YS02001920YS02001918        1.62      1.62      1.65      0.01         0.01
  YS02001629YS02163301        6.16      6.16      6.17      0.01         0.01
  YS02001619YS02001622        6.09      6.09      6.09      0.01         0.03
  YS02001622YS02001625        6.09      6.09      6.15      0.01         0.01
  YS02001625YS02001629        6.09      6.09      6.15      0.01         0.01
  YS02163301YS02001633        6.17      6.17      6.18      0.01         0.01
  YS02163601YS02164001        6.17      6.17      6.20      0.01         0.01
  YS02164001YS02001641        6.17      6.17      6.18      0.01         0.03
  YS02001641YS02001644        6.18      6.18      6.18      2.38         2.28
  YS02001647YS02001649        6.15      6.15      6.19      0.01         0.01
  YS02006553YS02006556        2.10      2.10      2.44      0.01         0.01
  YS02006556YS02006558        2.22      2.22      2.50      0.01         0.01
  YSB6556YSB1171              0.01      0.01      0.30      0.01         0.01
  YS02001907YS02006553        2.94      2.94      3.13      0.01         0.01
  YS02006558YS02006561        1.72      2.07      1.72      2.78         1.72
  YS02001633YS02163601        6.17      6.17      6.20      0.01         0.01
  YS02001644YS02001647        6.15      6.15      6.18      0.01         0.01
  YS02001745YS02001748        0.01      0.01      6.05      0.01         0.01
  YS02001748YS02001751        6.06      6.06      6.08      0.01         0.01
  YS02001751YS02001754        6.08      6.08      6.13      0.01         0.01
  YS02001754YS02001757        6.15      6.15      6.23      0.01         0.01
  YS02001882YS02001884        1.79      1.79      1.80      0.01         0.01
  YS02001884YS02001887        1.84      1.84      1.86      0.01         0.01
  YS02001890YS02001895        1.76      1.76      1.93      0.01         0.01
  YS02001895YS02001898        1.75      1.75      1.76      0.01         0.01
  YS02001898YS02001901        1.77      1.77      1.83      0.01         0.01
  YS02001901YS02001904        1.82      1.82      1.83      0.01         0.01
  YS02001904YS02001907        1.82      1.82      2.48      0.01         0.01
  YS02001887YS02001890        1.88      1.88      1.90      0.52         0.01
  YS02001652YS02001649        6.15      6.15      6.19      0.01         0.01
  YS02001655YS02001652        6.10      6.10      6.15      0.01         0.01
  YS02001658YS02001655        6.06      6.06      6.10      0.01         0.01
  YS02001661YS02001658        0.16      0.16      6.06      0.01         0.01
  YS02001664YS02001661        0.01      0.01      1.54      0.01         0.01
  HS02004881HS02006253        0.01      0.01      2.90      0.01         0.01
  YS02001793JiankangQianchi        2.80      2.80      4.07      0.01         0.01
  YS02001757CaochengTiaoxuchi        5.63      5.63      6.23      0.01         0.01
  
  
  ***************
  Pumping Summary
  ***************
  
  ---------------------------------------------------------------------------------------------------------
                                                  Min       Avg       Max     Total     Power    % Time Off
                        Percent   Number of      Flow      Flow      Flow    Volume     Usage    Pump Curve
  Pump                 Utilized   Start-Ups       LPS       LPS       LPS  10^6 ltr     Kw-hr    Low   High
  ---------------------------------------------------------------------------------------------------------
  CC-Pump-1               80.90           1      0.00    187.87    200.00     4.299      6.62    0.0    5.7
  CC-Pump-2               63.83           6      0.00    117.03    200.00     2.640      4.67    0.0    3.8
  JK-Pump-1               74.46           4      0.00    230.84    300.00     4.793     68.65    0.0    0.0
  JK-Pump-2               59.56           3      0.00    441.93    683.00     7.692     95.70    0.0   98.1
  XR-Pump-1               97.87           2      0.00     94.51     95.00     2.565     20.28    0.0    0.0
  XR-Pump-2               97.87           2      0.00     92.06     95.00     2.508     19.18    0.0    0.0
  XR-Pump-3               97.87           2      0.00     92.06     95.00     2.508     19.18    0.0    0.0
  XR-Pump-4               97.87           2      0.00     92.06     95.00     2.508     19.18    0.0    0.0
  
  
  ***************************
  Link Pollutant Load Summary
  ***************************
  
  ------------------------------------------------------------------------------------------
                                 COD            SS            TN            TP         NH4-N
  Link                            kg            kg            kg            kg            kg
  ------------------------------------------------------------------------------------------
  WS02003066WSF200          1248.532      2400.932        29.453         2.432        15.117
  WS02006287WS02006284       438.095       854.558        12.585         1.181         6.762
  WS02006284WS02006280       438.594       855.359        12.632         1.187         6.792
  WS02006280WS02006229       438.595       855.378        12.631         1.186         6.791
  WS02006229WS02006228      1243.384      2391.199        28.801         2.342        14.701
  WS02006256WS02006235       236.617       446.052         5.098         0.391         2.561
  WS02006253WS02006251        86.533       173.334         1.882         0.141         0.931
  WS02006252WS02006251       712.124      1363.191        13.655         0.936         6.573
  WS02006251WS02006249       787.594      1515.690        15.327         1.063         7.405
  WS02006249WS02006248       581.716      1114.547        11.407         0.791         5.523
  WS02006248WS02006247       578.750      1108.850        11.349         0.787         5.495
  WS02006247WS02006245       577.970      1107.429        11.331         0.786         5.486
  WS02006245WS02006243       576.984      1105.673        11.306         0.784         5.473
  WS02006243WS02006242       576.281      1104.462        11.290         0.783         5.465
  WS02006242WS02006240       575.244      1102.616        11.263         0.781         5.451
  WS02006240WS02006239       574.293      1100.883        11.241         0.779         5.440
  WS02006239WS02006238       573.430      1099.135        11.252         0.782         5.450
  WS02006238WS02006235       573.223      1098.616        11.268         0.784         5.462
  WS02006235WS02006234       807.390      1540.430        16.243         1.162         7.949
  WS02006234WS02006232       806.870      1539.458        16.241         1.162         7.950
  WS02006232WS02006231       806.245      1538.288        16.227         1.161         7.942
  WS02006231WS02006230       805.438      1536.809        16.205         1.159         7.931
  WS02006230WS02006229       805.535      1537.094        16.205         1.159         7.931
  WS02006228WS02006109      1242.689      2389.926        28.783         2.341        14.692
  WS02006116WS02004401      1262.146      2426.031        29.735         2.451        15.255
  WS02006115WS02006116      1263.401      2428.305        29.771         2.455        15.274
  WS02006113WS02006111      1248.473      2398.568        29.526         2.436        15.163
  WS02006112WS02006115      1264.643      2430.512        29.813         2.459        15.297
  WS02006111WS02006112      1248.239      2398.223        29.512         2.435        15.155
  WS02006110WS02006113      1249.280      2400.034        29.550         2.438        15.176
  WS02006109WS02006110      1250.473      2402.183        29.588         2.442        15.197
  WS02004411WS02004412      1252.205      2407.611        29.562         2.442        15.175
  WS02004401WS02004402      1260.898      2423.793        29.696         2.448        15.233
  WS02004413WS02003067      1249.534      2402.826        29.473         2.433        15.126
  WS02004412WS02004413      1250.800      2405.074        29.521         2.438        15.154
  WS02004410WS02004411      1253.486      2409.956        29.595         2.444        15.193
  WS02004409WS02004410      1254.701      2412.160        29.629         2.448        15.211
  WS02004407WS02004409      1255.847      2414.260        29.657         2.450        15.225
  WS02004406WS02004407      1256.349      2415.222        29.662         2.450        15.227
  WS02004405WS02004406      1257.911      2418.054        29.712         2.454        15.254
  WS02004404WS02004405      1259.073      2420.256        29.718         2.454        15.255
  WS02004403WS02004404      1258.655      2419.738        29.630         2.442        15.197
  WS02004402WS02004403      1259.711      2421.641        29.663         2.445        15.215
  WS02004139WS02001211      1354.220      2295.532       101.503        12.242        62.144
  WS02004138WS02004139      1360.565      2306.232       101.975        12.299        62.433
  WS02003067WS02003066      1248.739      2401.318        29.458         2.432        15.120
  WS02001213WS02003059      1387.221      2347.124       104.972        12.681        64.326
  WS02001212WS02001213      1396.224      2362.190       105.674        12.766        64.757
  WS02001211WS02001212      1398.573      2366.037       105.876        12.791        64.882
  WS02003072WS02003073      2734.758      4904.746       144.403        16.367        85.699
  WS02003069WS02003072      2740.091      4913.568       144.828        16.419        85.961
  WS02003060WS02003069      2742.887      4918.517       144.962        16.434        86.039
  WS02003059WS02003060      1383.944      2341.512       104.750        12.655        64.191
  HS02004901HS02004770        19.399        38.441         0.369         0.028         0.174
  HS02004876HS02004881        64.843       131.157         1.382         0.100         0.674
  HS02004870HS02004876        49.302        99.619         1.094         0.080         0.537
  HS02004842HS02004848         9.278        18.137         0.191         0.013         0.089
  HS02004837HS02004842        13.925        25.525         0.662         0.072         0.384
  HS02004830HS02004837        81.307       145.731         4.858         0.568         2.931
  HS02004824HS02004830        82.100       147.035         4.931         0.577         2.976
  HS02004817HS02004824       118.563       221.805         5.666         0.624         3.333
  HS02004770HS02004777        73.685       147.825         1.507         0.104         0.700
  HS02004799HS02004480       235.086       460.644         5.679         0.484         2.882
  HS02004792HS02004799       214.145       417.335         5.330         0.464         2.722
  HS02004788HS02004792       116.316       227.343         3.333         0.303         1.755
  HS02004785HS02004788        75.102       150.093         1.653         0.123         0.793
  HS02004777HS02004785        74.433       149.019         1.592         0.115         0.755
  HS02004480HS02004478       294.430       579.938         6.703         0.559         3.370
  HS02004479HS02004480        62.983       125.169         1.335         0.113         0.680
  HS02004862HS02004870        37.532        74.850         0.862         0.066         0.425
  HS02004848HS02004852        15.822        31.381         0.320         0.022         0.149
  HS02004856HS02004862        25.851        52.198         0.514         0.035         0.242
  HS02004852HS02004856        15.835        31.404         0.320         0.022         0.149
  HS02004802HS02004478       144.595       276.112         5.947         0.629         3.432
  HS02004478WS02006287       438.242       854.769        12.602         1.183         6.772
  HS02004817HS02004807       117.205       219.663         5.526         0.607         3.245
  HS02004807HS02004802       144.761       276.365         5.979         0.633         3.453
  YS02001759YS02001757       532.873      1012.616        10.363         0.724         5.046
  YS02001762YS02001759       207.207       389.700         4.309         0.301         2.123
  YS02001765YS02001762       208.385       393.015         4.349         0.305         2.145
  YS02001770YS02001767       211.293       401.680         4.228         0.283         2.055
  YS02001774YS02001770       356.952       701.446         6.911         0.461         3.344
  YS02001779YS02001774       355.927       699.504         6.968         0.471         3.386
  YS02001649YS02001757       402.857       745.157         7.977         0.560         3.825
  YS02001767YS02001765       210.296       397.745         4.399         0.309         2.172
  YS02006561YS02001783      1268.697      2395.529        26.142         1.929        12.935
  YS02001783YS02001784      1268.536      2395.257        26.137         1.929        12.932
  YS02001784YS02001785      1275.859      2406.994        26.848         2.018        13.377
  YS02001788YS02001790      1276.453      2407.944        26.924         2.028        13.425
  YS02001790YS02001791      1277.630      2409.884        27.038         2.042        13.497
  YS02001791YS02001793      1277.536      2409.690        27.034         2.042        13.495
  YS02001910YS02001907       564.047      1065.134        12.703         0.936         6.409
  YS02001786YS02001788      1276.058      2407.336        26.876         2.022        13.395
  YS02001915YS02001910       564.154      1065.311        12.661         0.930         6.380
  YS02001918YS02001915       276.407       501.119         6.816         0.586         3.579
  YS02001923YS02001920       252.220       460.145         4.807         0.341         2.336
  YS02001926YS02001923       249.407       455.211         4.686         0.328         2.266
  YS02001929YS02001926       247.621       452.094         4.610         0.320         2.222
  YS02001920YS02001918       273.056       493.966         6.739         0.581         3.541
  YS02001629YS02163301        89.205       158.486         1.884         0.124         0.883
  YS02001619YS02001622       259.366       485.206         5.243         0.348         2.461
  YS02001622YS02001625       258.392       483.678         5.218         0.346         2.450
  YS02001625YS02001629        86.338       152.752         1.840         0.120         0.861
  YS02163301YS02001633        94.054       168.013         1.961         0.130         0.922
  YS02163601YS02164001       528.370       975.299        10.152         0.734         4.880
  YS02164001YS02001641       528.223       975.030        10.138         0.732         4.872
  YS02001641YS02001644       529.257       976.765        10.151         0.733         4.877
  YS02001647YS02001649       489.980       909.440         9.703         0.683         4.630
  YS02006553YS02006556       787.871      1468.826        16.715         1.264         8.369
  YS02006556YS02006558       787.945      1468.959        16.678         1.259         8.344
  YSB6556YSB1171              36.523        72.736         0.718         0.059         0.359
  YS02001907YS02006553       787.956      1468.999        16.745         1.269         8.389
  YS02006558YS02006561      1268.686      2395.504        26.142         1.929        12.935
  YS02001633YS02163601       528.978       976.262        10.129         0.730         4.862
  YS02001644YS02001647       497.613       924.219         9.828         0.693         4.689
  YS02001745YS02001748       354.058       679.942         6.989         0.437         3.358
  YS02001748YS02001751       353.398       678.826         6.996         0.440         3.366
  YS02001751YS02001754       352.461       677.286         6.980         0.439         3.359
  YS02001754YS02001757       353.284       678.514         7.147         0.462         3.467
  YS02001882YS02001884         2.853         5.020         0.055         0.004         0.027
  YS02001884YS02001887         7.493        13.540         0.142         0.011         0.070
  YS02001890YS02001895       614.690      1175.260        11.359         0.858         5.542
  YS02001895YS02001898       614.523      1175.045        11.352         0.858         5.539
  YS02001898YS02001901       614.254      1174.541        11.347         0.857         5.536
  YS02001901YS02001904       614.138      1174.379        11.356         0.859         5.543
  YS02001904YS02001907       614.331      1174.625        11.411         0.866         5.578
  YS02001887YS02001890       669.086      1284.045        12.353         0.936         6.030
  YS02001652YS02001649       307.086       583.954         6.087         0.441         2.861
  YS02001655YS02001652       307.637       584.858         6.102         0.442         2.869
  YS02001658YS02001655       307.170       584.139         6.016         0.430         2.813
  YS02001661YS02001658       307.859       585.315         6.032         0.431         2.820
  YS02001664YS02001661       322.437       608.876         6.373         0.454         2.976
  YSB1154YSB6556              36.101        72.068         0.672         0.053         0.330
  YSB1174YSB1171              24.945        50.010         0.488         0.039         0.242
  YSB1171HS02004479           62.905       125.025         1.341         0.114         0.684
  HS02004881HS02006253        73.212       148.541         1.527         0.109         0.743
  YS02001793JiankangQianchi      1277.794      2410.047        27.042         2.042        13.499
  YS02001757CaochengTiaoxuchi       982.750      1857.595        19.245         1.319         9.288
  WSF200WS02003060          1248.101      2400.097        29.450         2.432        15.117
  1                         2740.921      4913.444       145.294        16.484        86.268
  CC-Pump-1                  435.184       832.101         8.363         0.573         4.027
  CC-Pump-2                  276.985       531.180         5.292         0.363         2.546
  JK-Pump-1                  369.549       701.782         7.780         0.591         3.886
  JK-Pump-2                  731.849      1404.807        14.656         1.073         7.212
  XR-Pump-1                  347.403       588.268        26.161         3.158        16.023
  XR-Pump-2                  338.980       574.750        25.373         3.060        15.532
  XR-Pump-3                  338.980       574.750        25.373         3.060        15.532
  XR-Pump-4                  338.980       574.750        25.373         3.060        15.532
  

  Analysis begun on:  Wed Jun  2 21:35:31 2021
  Analysis ended on:  Wed Jun  2 21:35:34 2021
  Total elapsed time: 00:00:03