
  EPA STORM WATER MANAGEMENT MODEL - VERSION 5.1 (Build 5.3.0.dev0)
  --------------------------------------------------------------

  WARNING 04: minimum elevation drop used for Conduit WS02004404WS02004405
  WARNING 03: negative offset ignored for Link YS02001904YS02001907
  
  *********************************************************
  NOTE: The summary statistics displayed in this report are
  based on results found at every computational time step,  
  not just on results from each reporting time step.
  *********************************************************
  
  ****************
  Analysis Options
  ****************
  Flow Units ............... LPS
  Process Models:
    Rainfall/Runoff ........ YES
    RDII ................... NO
    Snowmelt ............... NO
    Groundwater ............ NO
    Flow Routing ........... YES
    Ponding Allowed ........ NO
    Water Quality .......... YES
  Infiltration Method ...... HORTON
  Flow Routing Method ...... DYNWAVE
  Surcharge Method ......... EXTRAN
  Starting Date ............ 08/28/2015 08:00:00
  Ending Date .............. 08/28/2015 15:50:00
  Antecedent Dry Days ...... 8.0
  Report Time Step ......... 00:01:00
  Wet Time Step ............ 00:01:00
  Dry Time Step ............ 00:01:00
  Routing Time Step ........ 5.00 sec
  Variable Time Step ....... YES
  Maximum Trials ........... 8
  Number of Threads ........ 4
  Head Tolerance ........... 0.001500 m
  
  
  **************************        Volume         Depth
  Runoff Quantity Continuity     hectare-m            mm
  **************************     ---------       -------
  Total Precipitation ......         0.926         2.027
  Evaporation Loss .........         0.000         0.000
  Infiltration Loss ........         0.233         0.511
  Surface Runoff ...........         0.404         0.884
  Final Storage ............         0.289         0.633
  Continuity Error (%) .....        -0.025
  
  
  **************************           COD            SS            TN            TP         NH4-N
  Runoff Quality Continuity             kg            kg            kg            kg            kg
  **************************    ----------    ----------    ----------    ----------    ----------
  Initial Buildup ..........     41378.656     70582.865      1804.177       168.684      1032.807
  Surface Buildup ..........        11.444        10.465         3.203         0.299         1.905
  Wet Deposition ...........         0.000         0.000         0.000         0.000         0.000
  Sweeping Removal .........         0.000         0.000         0.000         0.000         0.000
  Infiltration Loss ........         5.246         7.975         0.122         0.008         0.056
  BMP Removal ..............         0.000         0.000         0.000         0.000         0.000
  Surface Runoff ...........       129.842       192.845         2.976         0.180         1.387
  Remaining Buildup ........     41254.969     70392.448      1804.280       168.796      1033.269
  Continuity Error (%) .....         0.000         0.000         0.000         0.000         0.000
  
  
  **************************        Volume        Volume
  Flow Routing Continuity        hectare-m      10^6 ltr
  **************************     ---------     ---------
  Dry Weather Inflow .......         0.616         6.165
  Wet Weather Inflow .......         0.404         4.037
  Groundwater Inflow .......         0.000         0.000
  RDII Inflow ..............         0.000         0.000
  External Inflow ..........         0.102         1.024
  External Outflow .........         0.940         9.397
  Flooding Loss ............         0.030         0.298
  Evaporation Loss .........         0.000         0.000
  Exfiltration Loss ........         0.000         0.000
  Initial Stored Volume ....         0.076         0.761
  Final Stored Volume ......         0.299         2.989
  Continuity Error (%) .....        -5.826
  
  
  **************************           COD            SS            TN            TP         NH4-N
  Quality Routing Continuity            kg            kg            kg            kg            kg
  **************************    ----------    ----------    ----------    ----------    ----------
  Dry Weather Inflow .......      1541.201      2465.922       147.955        18.494        92.472
  Wet Weather Inflow .......       129.771       192.747         2.974         0.179         1.386
  Groundwater Inflow .......         0.000         0.000         0.000         0.000         0.000
  RDII Inflow ..............         0.000         0.000         0.000         0.000         0.000
  External Inflow ..........       183.418       293.469        17.608         2.201        11.005
  External Outflow .........      1487.708      2378.409       140.047        17.451        87.386
  Flooding Loss ............        10.213        15.665         0.599         0.067         0.357
  Exfiltration Loss ........         0.000         0.000         0.000         0.000         0.000
  Mass Reacted .............         0.000         0.000         0.000         0.000         0.000
  Initial Stored Mass ......         0.000         0.000         0.000         0.000         0.000
  Final Stored Mass ........       199.469       308.697        13.970         1.639         8.472
  Continuity Error (%) .....         8.466         8.447         8.260         8.227         8.246
  
  
  *************************
  Highest Continuity Errors
  *************************
  Node YS02001774 (47.14%)
  Node HS02004842 (43.23%)
  Node YS02001884 (38.61%)
  Node JK-storage (-27.81%)
  Node YS02001625 (15.89%)
  
  
  ***************************
  Time-Step Critical Elements
  ***************************
  Link WS02006280WS02006229 (40.94%)
  Link YS02001793JiankangQianchi (25.90%)
  Link WS02006238WS02006235 (14.44%)
  Link WS02003066WSF200 (3.48%)
  
  
  ********************************
  Highest Flow Instability Indexes
  ********************************
  Link WS02006113WS02006111 (35)
  Link YS02001649YS02001757 (12)
  Link YS02001765YS02001762 (12)
  Link YS02001754YS02001757 (11)
  Link YS02001762YS02001759 (11)
  
  
  *************************
  Routing Time Step Summary
  *************************
  Minimum Time Step           :     0.50 sec
  Average Time Step           :     3.66 sec
  Maximum Time Step           :     5.00 sec
  Percent in Steady State     :    -0.00
  Average Iterations per Step :     2.27
  Percent Not Converging      :     0.31
  
  
  ***************************
  Subcatchment Runoff Summary
  ***************************
  
  ------------------------------------------------------------------------------------------------------------------------------
                            Total      Total      Total      Total     Imperv       Perv      Total       Total     Peak  Runoff
                           Precip      Runon       Evap      Infil     Runoff     Runoff     Runoff      Runoff   Runoff   Coeff
  Subcatchment                 mm         mm         mm         mm         mm         mm         mm    10^6 ltr      LPS
  ------------------------------------------------------------------------------------------------------------------------------
  sub0                       2.03       0.00       0.00       0.14       1.84       0.00       1.84        0.00     0.30   0.908
  sub1                       2.03       0.00       0.00       0.22       1.72       0.00       1.72        0.01     2.08   0.848
  sub2                       2.03       0.00       0.00       0.75       1.20       0.00       1.20        0.01     1.95   0.592
  sub3                       2.03       0.00       0.00       0.75       1.17       0.00       1.17        0.03     4.27   0.577
  sub4                       2.03       0.00       0.00       0.22       1.60       0.00       1.60        0.03     4.97   0.789
  sub5                       2.03       0.00       0.00       0.14       1.80       0.00       1.80        0.02     3.70   0.886
  sub7                       2.03       0.00       0.00       0.18       1.78       0.00       1.78        0.01     1.16   0.880
  sub8                       2.03       0.00       0.00       0.18       1.78       0.00       1.78        0.01     2.14   0.876
  sub9                       2.03       0.00       0.00       0.18       1.77       0.00       1.77        0.01     1.60   0.875
  sub10                      2.03       0.00       0.00       0.16       1.78       0.00       1.78        0.02     3.62   0.879
  sub11                      2.03       0.00       0.00       0.16       1.80       0.00       1.80        0.02     3.96   0.887
  sub12                      2.03       0.00       0.00       0.26       1.72       0.00       1.72        0.02     2.97   0.847
  sub14                      2.03       0.00       0.00       0.18       1.77       0.00       1.77        0.02     3.16   0.874
  sub15                      2.03       0.00       0.00       0.61       1.36       0.00       1.36        0.02     4.35   0.671
  sub16                      2.03       0.00       0.00       0.67       1.32       0.00       1.32        0.01     2.70   0.651
  sub17                      2.03       0.00       0.00       0.65       1.34       0.00       1.34        0.01     2.23   0.659
  sub22                      2.03       0.00       0.00       0.87       1.12       0.00       1.12        0.07    13.42   0.550
  sub23                      2.03       0.00       0.00       0.75       1.23       0.00       1.23        0.06    11.28   0.609
  sub60                      2.03       0.00       0.00       0.24       0.94       0.00       0.94        0.28    22.94   0.462
  sub61                      2.03       0.00       0.00       0.34       1.07       0.00       1.07        0.33    30.51   0.527
  sub62                      2.03       0.00       0.00       0.16       1.12       0.00       1.12        0.35    30.69   0.554
  sub63                      2.03       0.00       0.00       0.59       0.97       0.00       0.97        0.29    29.05   0.480
  sub64                      2.03       0.00       0.00       0.30       0.89       0.00       0.89        0.27    21.69   0.440
  sub65                      2.03       0.00       0.00       0.26       0.90       0.00       0.90        0.28    21.90   0.443
  sub66                      2.03       0.00       0.00       0.59       0.79       0.00       0.79        0.24    20.27   0.392
  sub67                      2.03       0.00       0.00       0.16       1.31       0.00       1.31        0.40    41.25   0.645
  sub68                      2.03       0.00       0.00       0.28       1.15       0.00       1.15        0.35    34.17   0.569
  sub69                      2.03       0.00       0.00       0.30       1.32       0.00       1.32        0.31    35.30   0.651
  sub70                      2.03       1.35       0.00       1.15       1.41       0.00       1.41        0.32    22.55   0.419
  sub71                      2.03       0.00       0.00       0.16       1.05       0.00       1.05        0.25    20.97   0.518
  sub72                      2.03       0.00       0.00       0.14       0.65       0.00       0.65        0.13     8.90   0.321
  1                          2.03       1.38       0.00       1.15       1.32       0.01       1.33        0.31    20.00   0.391
  2                          2.03       0.00       0.00       1.52       0.41       0.00       0.41        0.16    20.26   0.201
  
  
  ****************************
  Subcatchment Washoff Summary
  ****************************
  
  ------------------------------------------------------------------------------------------
                                 COD            SS            TN            TP         NH4-N
  Subcatchment                    kg            kg            kg            kg            kg
  ------------------------------------------------------------------------------------------
  sub0                         0.144         0.230         0.002         0.000         0.001
  sub1                         0.618         1.010         0.013         0.001         0.006
  sub2                         0.363         0.576         0.010         0.001         0.004
  sub3                         0.859         1.340         0.022         0.001         0.010
  sub4                         1.382         2.236         0.032         0.002         0.015
  sub5                         1.366         2.196         0.025         0.002         0.012
  sub7                         0.338         0.565         0.007         0.000         0.003
  sub8                         0.535         0.911         0.012         0.001         0.006
  sub9                         0.439         0.738         0.010         0.001         0.005
  sub10                        1.171         1.914         0.023         0.001         0.011
  sub11                        1.198         1.989         0.024         0.001         0.012
  sub12                        0.972         1.586         0.018         0.001         0.009
  sub14                        0.913         1.518         0.019         0.001         0.009
  sub15                        1.029         1.632         0.023         0.002         0.010
  sub16                        0.656         1.041         0.014         0.001         0.006
  sub17                        0.585         0.917         0.012         0.001         0.005
  sub22                        2.989         4.638         0.066         0.005         0.030
  sub23                        2.002         3.246         0.053         0.003         0.023
  sub60                        8.254        12.126         0.201         0.011         0.096
  sub61                       10.845        15.871         0.234         0.014         0.112
  sub62                       11.596        17.308         0.271         0.015         0.129
  sub63                        8.477        12.378         0.215         0.014         0.095
  sub64                        9.108        12.874         0.195         0.013         0.091
  sub65                        9.347        13.269         0.202         0.013         0.095
  sub66                        5.998         8.646         0.158         0.009         0.071
  sub67                       17.462        25.798         0.342         0.023         0.164
  sub68                       12.603        18.718         0.286         0.017         0.134
  sub69                       12.440        18.757         0.269         0.017         0.126
  sub70                       15.674        23.762         0.384         0.024         0.173
  sub71                        7.724        11.621         0.196         0.010         0.093
  sub72                        3.891         5.370         0.086         0.005         0.041
  1                            5.616         8.581         0.148         0.009         0.065
  2                            1.363         2.002         0.056         0.003         0.022
  ------------------------------------------------------------------------------------------
  System                     157.956       235.365         3.629         0.220         1.686
  
  
  ******************
  Node Depth Summary
  ******************
  
  ---------------------------------------------------------------------------------
                                 Average  Maximum  Maximum  Time of Max    Reported
                                   Depth    Depth      HGL   Occurrence   Max Depth
  Node                 Type       Meters   Meters   Meters  days hr:min      Meters
  ---------------------------------------------------------------------------------
  WS02001211           JUNCTION     0.62     0.77     5.61     0  03:20        0.77
  WS02001212           JUNCTION     0.34     0.47     5.54     0  03:20        0.47
  WS02001213           JUNCTION     0.54     0.71     5.47     0  03:21        0.71
  WS02003069           JUNCTION     0.31     0.48     5.07     0  03:22        0.48
  WS02003072           JUNCTION     0.38     0.55     4.92     0  03:22        0.55
  WS02003073           JUNCTION     0.22     0.33     4.40     0  03:23        0.33
  WS02003060           JUNCTION     0.28     0.43     5.36     0  03:21        0.43
  WS02003066           JUNCTION     0.12     0.23     5.79     0  03:21        0.23
  WS02003059           JUNCTION     0.60     0.75     5.44     0  03:21        0.75
  WS02003067           JUNCTION     0.33     0.58     5.90     0  03:21        0.58
  WS02004401           JUNCTION     0.42     0.65     6.65     0  03:15        0.65
  WS02004402           JUNCTION     0.46     0.69     6.65     0  03:15        0.69
  WS02004403           JUNCTION     0.48     0.71     6.64     0  03:15        0.71
  WS02004404           JUNCTION     0.56     0.79     6.64     0  03:15        0.79
  WS02004406           JUNCTION     0.58     0.80     6.63     0  03:16        0.80
  WS02004409           JUNCTION     0.22     0.47     6.24     0  03:19        0.47
  WS02004410           JUNCTION     0.24     0.49     6.21     0  03:20        0.49
  WS02004411           JUNCTION     0.26     0.51     6.19     0  03:20        0.51
  WS02004412           JUNCTION     0.29     0.53     6.17     0  03:20        0.53
  WS02004413           JUNCTION     0.42     0.70     6.17     0  03:21        0.70
  WS02004405           JUNCTION     0.56     0.79     6.64     0  03:15        0.79
  WS02006109           JUNCTION     0.48     0.73     7.35     0  03:08        0.73
  WS02006110           JUNCTION     0.50     0.73     7.32     0  03:08        0.73
  WS02006111           JUNCTION     0.11     0.21     6.92     0  03:09        0.21
  WS02006112           JUNCTION     0.56     0.82     6.70     0  03:14        0.82
  WS02006113           JUNCTION     0.16     0.33     7.22     0  03:09        0.33
  WS02006115           JUNCTION     0.30     0.54     6.67     0  03:14        0.54
  WS02006116           JUNCTION     0.39     0.62     6.66     0  03:15        0.62
  WS02006230           JUNCTION     0.37     0.66     7.40     0  03:08        0.66
  WS02006231           JUNCTION     0.19     0.44     7.56     0  04:19        0.44
  WS02006232           JUNCTION     0.29     0.57     7.61     0  04:19        0.57
  WS02006234           JUNCTION     0.18     0.48     7.64     0  04:18        0.48
  WS02006235           JUNCTION     0.21     0.51     7.67     0  04:18        0.51
  WS02006238           JUNCTION     0.23     0.53     7.67     0  04:18        0.53
  WS02006240           JUNCTION     0.13     0.38     7.67     0  04:19        0.38
  WS02006242           JUNCTION     0.16     0.41     7.68     0  04:19        0.40
  WS02006243           JUNCTION     0.07     0.26     7.68     0  04:20        0.26
  WS02006245           JUNCTION     0.06     0.19     7.68     0  04:19        0.19
  WS02006247           JUNCTION     0.06     0.18     7.68     0  04:20        0.18
  WS02006248           JUNCTION     0.03     0.09     7.68     0  03:06        0.09
  WS02006249           JUNCTION     0.06     0.11     7.71     0  03:03        0.11
  WS02006239           JUNCTION     0.17     0.46     7.67     0  04:19        0.46
  WS02006251           JUNCTION     0.04     0.08     7.75     0  03:03        0.08
  WS02006252           JUNCTION     0.00     0.00     8.24     0  00:00        0.00
  WS02006253           JUNCTION     0.07     0.13     7.78     0  03:02        0.13
  WS02006256           JUNCTION     0.73     2.35     9.28     0  00:00        2.35
  WS02004138           JUNCTION     0.13     0.20     7.45     0  00:00        0.19
  WS02004139           JUNCTION     0.56     0.72     5.63     0  03:20        0.72
  WS02004407           JUNCTION     0.10     0.21     6.53     0  03:16        0.21
  WS02006228           JUNCTION     0.45     0.72     7.37     0  03:08        0.71
  WS02006229           JUNCTION     0.41     0.68     7.38     0  03:08        0.68
  WS02006280           JUNCTION     0.04     0.08     8.35     0  03:03        0.08
  WS02006284           JUNCTION     0.32     0.39     8.79     0  03:03        0.39
  WS02006287           JUNCTION     0.06     0.12     9.07     0  03:03        0.12
  WSF200               JUNCTION     0.09     0.20     5.44     0  03:21        0.20
  HS02004901           JUNCTION     0.09     0.15     9.97     0  03:01        0.15
  HS02004881           JUNCTION     0.00     0.01     9.04     0  03:02        0.01
  HS02004876           JUNCTION     0.03     0.06     9.09     0  03:02        0.06
  HS02004870           JUNCTION     0.01     0.02     9.30     0  03:01        0.02
  HS02004862           JUNCTION     0.01     0.02     9.40     0  03:02        0.02
  HS02004856           JUNCTION     0.06     0.08     9.51     0  03:02        0.08
  HS02004852           JUNCTION     0.00     0.01     9.52     0  03:03        0.01
  HS02004848           JUNCTION     0.00     0.01     9.61     0  03:01        0.01
  HS02004842           JUNCTION     0.32     0.34     9.61     0  03:01        0.34
  HS02004837           JUNCTION     0.02     0.03     9.61     0  03:01        0.03
  HS02004830           JUNCTION     0.03     0.04     9.51     0  03:02        0.04
  HS02004824           JUNCTION     0.02     0.02     9.43     0  03:01        0.02
  HS02004817           JUNCTION     0.39     0.46     9.31     0  03:03        0.46
  HS02004807           JUNCTION     0.09     0.13     9.30     0  03:02        0.13
  HS02004802           JUNCTION     0.13     0.17     9.30     0  03:03        0.17
  HS02004799           JUNCTION     0.08     0.15     9.36     0  03:01        0.15
  HS02004792           JUNCTION     0.02     0.04     9.57     0  03:01        0.04
  HS02004788           JUNCTION     0.01     0.03     9.93     0  03:02        0.03
  HS02004785           JUNCTION     0.02     0.07     9.97     0  03:02        0.07
  HS02004777           JUNCTION     0.11     0.17     9.97     0  03:02        0.17
  HS02004770           JUNCTION     0.08     0.14     9.97     0  03:01        0.14
  HS02004480           JUNCTION     0.05     0.11     9.35     0  03:02        0.10
  HS02004479           JUNCTION     0.08     0.14     9.35     0  03:02        0.14
  HS02004478           JUNCTION     0.04     0.07     9.30     0  03:02        0.07
  YS02001745           JUNCTION     0.04     0.07     7.58     0  03:01        0.07
  YS02001748           JUNCTION     0.16     0.43     7.50     0  07:49        0.42
  YS02001751           JUNCTION     0.29     0.62     7.50     0  07:50        0.62
  YS02001754           JUNCTION     0.48     0.89     7.50     0  07:50        0.89
  YS02001762           JUNCTION     0.65     1.10     7.50     0  07:50        1.10
  YS02001765           JUNCTION     0.61     1.05     7.50     0  07:50        1.05
  YS02001767           JUNCTION     0.58     1.01     7.50     0  07:50        1.01
  YS02001770           JUNCTION     0.58     1.01     7.50     0  07:50        1.01
  YS02001774           JUNCTION     0.63     1.08     7.50     0  07:49        1.08
  YS02001779           JUNCTION     0.42     0.82     7.50     0  07:49        0.82
  YS02001882           JUNCTION     0.16     0.26     6.98     0  03:08        0.26
  YS02001884           JUNCTION     0.25     0.36     6.98     0  03:08        0.36
  YS02001759           JUNCTION     0.68     1.14     7.50     0  07:50        1.14
  YS02001887           JUNCTION     0.33     0.44     6.98     0  03:08        0.44
  YS02001890           JUNCTION     0.36     0.47     6.98     0  03:09        0.47
  YS02001898           JUNCTION     0.14     0.23     6.96     0  03:08        0.23
  YS02001901           JUNCTION     0.24     0.36     6.96     0  03:09        0.36
  YS02001904           JUNCTION     0.22     0.33     6.96     0  03:09        0.33
  YS02001907           JUNCTION     0.54     0.67     6.96     0  03:10        0.67
  YS02001910           JUNCTION     0.33     0.46     6.96     0  03:10        0.46
  YS02001915           JUNCTION     0.16     0.24     6.96     0  03:10        0.24
  YS02001918           JUNCTION     0.05     0.06     7.12     0  03:09        0.06
  YS02001619           JUNCTION     0.26     0.57     7.50     0  07:49        0.57
  YS02001629           JUNCTION     0.53     0.95     7.50     0  07:49        0.95
  YS02001641           JUNCTION     0.62     1.07     7.50     0  07:49        1.07
  YS02001644           JUNCTION     0.63     1.07     7.50     0  07:49        1.07
  YS02001652           JUNCTION     0.49     0.91     7.50     0  07:49        0.91
  YS02001655           JUNCTION     0.31     0.65     7.50     0  07:49        0.65
  YS02001920           JUNCTION     0.12     0.14     7.15     0  03:08        0.14
  YS02001923           JUNCTION     0.03     0.05     7.31     0  03:06        0.05
  YS02001926           JUNCTION     0.08     0.11     7.55     0  03:05        0.11
  YS02001929           JUNCTION     0.03     0.05     7.74     0  03:01        0.05
  YS02001658           JUNCTION     0.13     0.36     7.50     0  07:49        0.36
  YS02001661           JUNCTION     0.11     0.14     7.55     0  03:01        0.14
  YS02001664           JUNCTION     0.04     0.07     7.99     0  03:01        0.07
  YS02001622           JUNCTION     0.27     0.60     7.50     0  07:50        0.60
  YS02001633           JUNCTION     0.61     1.05     7.50     0  07:49        1.05
  YS02001649           JUNCTION     0.66     1.11     7.50     0  07:50        1.11
  YS02001757           JUNCTION     0.78     1.24     7.50     0  07:50        1.24
  YS02001895           JUNCTION     0.14     0.23     6.97     0  03:09        0.23
  YS02001625           JUNCTION     0.51     0.90     7.50     0  07:49        0.90
  YS02163301           JUNCTION     0.55     0.99     7.50     0  07:49        0.99
  YS02163601           JUNCTION     0.66     1.10     7.50     0  07:50        1.10
  YS02164001           JUNCTION     0.61     1.04     7.50     0  07:49        1.04
  YS02001647           JUNCTION     0.48     0.89     7.50     0  07:50        0.89
  YSB1154              JUNCTION     0.21     0.29     9.35     0  03:02        0.29
  YSB6556              JUNCTION     0.11     0.18     9.35     0  03:02        0.18
  YSB1174              JUNCTION     0.17     0.24     9.35     0  03:02        0.24
  YSB1171              JUNCTION     0.36     0.44     9.35     0  03:02        0.44
  YS02006553           JUNCTION     0.54     0.68     6.96     0  03:09        0.68
  YS02006561           JUNCTION     0.07     0.13     6.79     0  03:09        0.13
  YS02006556           JUNCTION     0.51     0.65     6.96     0  03:09        0.65
  YS02006558           JUNCTION     0.56     0.70     6.96     0  03:09        0.70
  YS02001783           JUNCTION     0.12     0.21     6.35     0  03:09        0.21
  YS02001784           JUNCTION     0.15     0.25     6.32     0  03:10        0.25
  YS02001786           JUNCTION     0.13     0.21     6.24     0  03:10        0.21
  YS02001788           JUNCTION     0.09     0.15     6.13     0  03:11        0.15
  YS02001790           JUNCTION     0.11     0.18     5.83     0  03:11        0.18
  YS02001791           JUNCTION     0.08     0.12     5.59     0  03:11        0.12
  YS02001793           JUNCTION     0.04     0.08     4.91     0  03:11        0.08
  WSC                  OUTFALL      0.22     0.33     1.00     0  03:23        0.33
  JK-storage           STORAGE      0.63     3.00     3.80     0  00:00        2.85
  CC-storage           STORAGE      0.19     0.50     7.50     0  07:50        0.50
  XR-storage           STORAGE      1.64     5.00     3.00     0  00:00        4.91
  
  
  *******************
  Node Inflow Summary
  *******************
  
  -------------------------------------------------------------------------------------------------
                                  Maximum  Maximum                  Lateral       Total        Flow
                                  Lateral    Total  Time of Max      Inflow      Inflow     Balance
                                   Inflow   Inflow   Occurrence      Volume      Volume       Error
  Node                 Type           LPS      LPS  days hr:min    10^6 ltr    10^6 ltr     Percent
  -------------------------------------------------------------------------------------------------
  WS02001211           JUNCTION      7.35   388.08     0  04:41       0.207        6.93       0.115
  WS02001212           JUNCTION      0.00   388.57     0  04:40           0        6.92       0.119
  WS02001213           JUNCTION      0.00   389.07     0  04:40           0        6.91       0.141
  WS02003069           JUNCTION      0.32   685.03     0  03:22     0.00902        9.39       0.110
  WS02003072           JUNCTION      0.00   684.90     0  03:22           0        9.38       0.174
  WS02003073           JUNCTION      1.82   686.63     0  03:23      0.0514        9.41       0.175
  WS02003060           JUNCTION     16.53   684.77     0  03:21       0.466         9.4       0.112
  WS02003066           JUNCTION      0.00   282.54     0  03:21           0        2.05       0.129
  WS02003059           JUNCTION      0.00   389.99     0  04:39           0        6.91       0.246
  WS02003067           JUNCTION      0.00   282.54     0  03:21           0        2.05       0.303
  WS02004401           JUNCTION      0.00   288.85     0  03:11           0         2.2       0.632
  WS02004402           JUNCTION      0.00   286.57     0  03:11           0        2.19       0.628
  WS02004403           JUNCTION      0.00   285.67     0  03:13           0        2.17       0.597
  WS02004404           JUNCTION      0.16   285.50     0  03:13     0.00457        2.17       0.475
  WS02004406           JUNCTION      0.00   285.14     0  03:13           0        2.14       1.184
  WS02004409           JUNCTION      0.00   284.98     0  03:16           0        2.11       0.362
  WS02004410           JUNCTION      0.00   283.86     0  03:17           0         2.1       0.461
  WS02004411           JUNCTION      0.00   283.28     0  03:19           0        2.09       0.513
  WS02004412           JUNCTION      0.00   282.89     0  03:19           0        2.08       0.609
  WS02004413           JUNCTION      0.00   282.65     0  03:20           0        2.07       0.984
  WS02004405           JUNCTION      0.04   285.37     0  03:13     0.00107        2.16       0.728
  WS02006109           JUNCTION      1.23   297.32     0  03:07      0.0347        2.26       0.560
  WS02006110           JUNCTION      0.00   297.22     0  03:08           0        2.25       0.513
  WS02006111           JUNCTION      0.00   299.55     0  03:09           0        2.23       0.077
  WS02006112           JUNCTION      2.23   298.14     0  03:09      0.0115        2.24       0.857
  WS02006113           JUNCTION      0.00   296.93     0  03:08           0        2.24       0.166
  WS02006115           JUNCTION      0.00   295.28     0  03:10           0        2.22       0.486
  WS02006116           JUNCTION      0.00   292.17     0  03:10           0        2.21       0.513
  WS02006230           JUNCTION     10.28   253.14     0  04:19        0.29        1.75       0.409
  WS02006231           JUNCTION      0.00   243.48     0  04:18           0        1.46       0.123
  WS02006232           JUNCTION      0.00   244.00     0  04:18           0        1.47       0.785
  WS02006234           JUNCTION      0.00   244.60     0  04:18           0        1.47      -0.288
  WS02006235           JUNCTION      0.00   288.60     0  00:00           0        1.64       0.697
  WS02006238           JUNCTION      0.00   164.86     0  00:00           0       0.363       0.526
  WS02006240           JUNCTION      0.00    80.36     0  00:02           0       0.228       0.502
  WS02006242           JUNCTION      0.00    65.03     0  00:03           0       0.158       1.077
  WS02006243           JUNCTION      0.00    31.27     0  05:36           0       0.103       0.125
  WS02006245           JUNCTION      0.00    19.32     0  03:07           0      0.0797       2.066
  WS02006247           JUNCTION      0.00    13.63     0  03:07           0      0.0695       0.308
  WS02006248           JUNCTION      0.00    10.61     0  03:03           0      0.0653       0.214
  WS02006249           JUNCTION      0.00    10.57     0  03:03           0      0.0647       0.376
  WS02006239           JUNCTION      0.00   121.08     0  00:01           0         0.3       0.695
  WS02006251           JUNCTION      0.08    10.61     0  03:02     0.00217      0.0646       0.130
  WS02006252           JUNCTION      0.00     0.00     0  00:00           0           0       0.000 ltr
  WS02006253           JUNCTION      0.30    10.55     0  03:01     0.00149      0.0626       0.247
  WS02006256           JUNCTION      0.00   983.00     0  00:00           0        1.72      -0.089
  WS02004138           JUNCTION      0.00   380.00     0  00:00           0        6.73       0.024
  WS02004139           JUNCTION      0.32   396.51     0  00:00     0.00905        6.74       0.237
  WS02004407           JUNCTION      0.00   285.00     0  03:16           0        2.12       0.162
  WS02006228           JUNCTION      0.00   296.89     0  03:07           0        2.24       0.460
  WS02006229           JUNCTION      0.00   297.14     0  03:07           0        2.24       0.385
  WS02006280           JUNCTION      0.00    62.98     0  03:03           0       0.506       0.016
  WS02006284           JUNCTION      0.10    63.01     0  03:03      0.0027       0.507       0.235
  WS02006287           JUNCTION      0.00    62.93     0  03:02           0       0.505       0.137
  WSF200               JUNCTION      0.00   282.54     0  03:21           0        2.04       0.104
  HS02004901           JUNCTION      2.70     2.70     0  03:01      0.0138       0.014      14.382
  HS02004881           JUNCTION      1.16    10.28     0  03:01     0.00601      0.0612       0.097
  HS02004876           JUNCTION      2.08     9.35     0  03:01      0.0114      0.0557       0.938
  HS02004870           JUNCTION      2.14     7.36     0  03:01      0.0113      0.0444       0.240
  HS02004862           JUNCTION      2.15     5.33     0  03:01      0.0168      0.0332       0.502
  HS02004856           JUNCTION      1.60     3.26     0  03:01     0.00853      0.0178       8.788
  HS02004852           JUNCTION      0.00     1.75     0  03:02           0     0.00931       0.501
  HS02004848           JUNCTION      4.27     4.27     0  03:01      0.0263      0.0263       0.163
  HS02004842           JUNCTION      0.00     4.48     0  00:03           0      0.0301      76.153
  HS02004837           JUNCTION      9.97    12.36     0  03:01       0.199       0.216       0.380
  HS02004830           JUNCTION      0.15    12.46     0  03:01     0.00423       0.206       0.600
  HS02004824           JUNCTION      5.02    17.39     0  03:01      0.0348        0.24       0.226
  HS02004817           JUNCTION      0.60    17.96     0  03:01      0.0169       0.256       6.955
  HS02004807           JUNCTION      3.96    21.64     0  03:01      0.0209        0.26       1.651
  HS02004802           JUNCTION      0.00    21.50     0  03:02           0       0.256       1.606
  HS02004799           JUNCTION      3.16    35.67     0  03:01      0.0169       0.232       1.014
  HS02004792           JUNCTION     13.70    32.72     0  03:01      0.0783       0.216       0.197
  HS02004788           JUNCTION      6.02    19.18     0  03:01      0.0705       0.138       0.287
  HS02004785           JUNCTION      0.15    13.56     0  03:02     0.00423      0.0699       0.691
  HS02004777           JUNCTION      0.03    13.63     0  03:01    0.000846      0.0701       7.962
  HS02004770           JUNCTION     11.28    13.84     0  03:01      0.0589      0.0711       4.569
  HS02004480           JUNCTION      0.00    41.60     0  03:01           0       0.264       0.241
  HS02004479           JUNCTION      0.00     6.37     0  03:04           0      0.0443       1.672
  HS02004478           JUNCTION      0.00    62.93     0  03:02           0       0.505       0.131
  YS02001745           JUNCTION     22.94    22.94     0  03:01       0.284       0.284       0.130
  YS02001748           JUNCTION      0.04    22.95     0  03:01     0.00127       0.288       2.835
  YS02001751           JUNCTION      0.01    26.18     0  06:13     0.00031        0.28       5.731
  YS02001754           JUNCTION      0.26    29.98     0  04:36     0.00733       0.271       8.877
  YS02001762           JUNCTION      0.00    31.98     0  03:11           0       0.274       8.481
  YS02001765           JUNCTION      0.00    31.95     0  03:12           0       0.277       9.605
  YS02001767           JUNCTION      0.54    35.17     0  02:55      0.0151       0.299      13.485
  YS02001770           JUNCTION     30.84    33.15     0  03:01        0.35       0.357       9.433
  YS02001774           JUNCTION      0.00    15.01     0  02:52           0      0.0536      89.172
  YS02001779           JUNCTION      0.01     6.19     0  02:52    0.000141      0.0208     182.857
  YS02001882           JUNCTION      0.00     0.84     0  02:16           0     0.00252     104.716
  YS02001884           JUNCTION      0.00     2.55     0  01:54           0      0.0104      62.883
  YS02001759           JUNCTION     30.55    59.99     0  03:11        0.33       0.569       4.259
  YS02001887           JUNCTION     41.70    41.70     0  03:01       0.416        0.42       1.512
  YS02001890           JUNCTION      0.00    39.72     0  03:02           0       0.404       1.736
  YS02001898           JUNCTION      0.00    39.08     0  03:05           0       0.395       0.428
  YS02001901           JUNCTION      0.00    38.96     0  03:07           0       0.394       1.188
  YS02001904           JUNCTION      0.00    38.96     0  03:09           0       0.393       1.112
  YS02001907           JUNCTION      0.00    70.72     0  03:11           0       0.839       2.519
  YS02001910           JUNCTION      0.00    31.96     0  03:08           0       0.457       2.014
  YS02001915           JUNCTION     20.99    32.12     0  03:04       0.249       0.461       0.763
  YS02001918           JUNCTION      0.00    11.75     0  03:07           0       0.213       0.319
  YS02001619           JUNCTION     20.27    20.27     0  03:01       0.243       0.243       3.065
  YS02001629           JUNCTION      0.00    20.65     0  03:01           0       0.183      12.711
  YS02001641           JUNCTION      0.00    40.11     0  03:07           0       0.365       6.141
  YS02001644           JUNCTION     21.73    59.81     0  03:09       0.272        0.61       4.484
  YS02001652           JUNCTION      0.00    31.51     0  02:57           0       0.278       8.398
  YS02001655           JUNCTION      0.15    29.06     0  03:02     0.00434       0.295       5.921
  YS02001920           JUNCTION      2.87    11.76     0  03:06      0.0809       0.214       0.704
  YS02001923           JUNCTION      0.04     8.89     0  03:05     0.00106       0.134       0.131
  YS02001926           JUNCTION      0.05     8.94     0  03:01     0.00147       0.134       0.966
  YS02001929           JUNCTION      8.90     8.90     0  03:01       0.133       0.133       0.123
  YS02001658           JUNCTION      0.00    28.95     0  03:01           0       0.298       2.617
  YS02001661           JUNCTION      0.00    29.01     0  03:01           0       0.294       0.217
  YS02001664           JUNCTION     29.05    29.05     0  03:01       0.295       0.295       0.044
  YS02001622           JUNCTION      0.00    21.54     0  03:01           0       0.236       9.425
  YS02001633           JUNCTION     22.10    43.05     0  03:00       0.282       0.425       8.131
  YS02001649           JUNCTION      0.00    85.94     0  03:07           0       0.802       4.861
  YS02001757           JUNCTION      0.00   159.73     0  03:12           0        1.52       6.527
  YS02001895           JUNCTION      0.00    39.34     0  03:04           0       0.397       0.653
  YS02001625           JUNCTION      0.00    22.29     0  02:58           0       0.216      18.897
  YS02163301           JUNCTION      0.00    20.29     0  03:00           0       0.168      16.307
  YS02163601           JUNCTION      0.11    42.55     0  02:59      0.0031       0.393       8.361
  YS02164001           JUNCTION      0.00    41.84     0  03:00           0        0.37       5.686
  YS02001647           JUNCTION      0.00    60.39     0  03:09           0       0.573       4.806
  YSB1154              JUNCTION      3.70     3.70     0  03:01      0.0203      0.0216       7.178
  YSB6556              JUNCTION      0.00     3.62     0  03:01           0      0.0225       5.846
  YSB1174              JUNCTION      2.97     2.97     0  03:01       0.015      0.0158       8.862
  YSB1171              JUNCTION      0.00     6.36     0  03:01           0      0.0437      16.916
  YS02006553           JUNCTION      0.00    70.81     0  03:11           0       0.825       1.651
  YS02006561           JUNCTION      0.00   103.53     0  03:09           0        1.16       0.038
  YS02006556           JUNCTION      0.00    70.89     0  03:11           0       0.827       1.176
  YS02006558           JUNCTION     35.05   103.54     0  03:09       0.379        1.19       0.351
  YS02001783           JUNCTION      0.00   103.53     0  03:09           0        1.16       0.089
  YS02001784           JUNCTION      1.06   104.59     0  03:09      0.0299        1.19       0.150
  YS02001786           JUNCTION      0.06   104.64     0  03:10     0.00159        1.19       0.147
  YS02001788           JUNCTION      0.07   104.71     0  03:10       0.002        1.19       0.081
  YS02001790           JUNCTION      0.15   104.86     0  03:11     0.00437         1.2       0.105
  YS02001791           JUNCTION      0.00   104.85     0  03:11           0        1.19       0.049
  YS02001793           JUNCTION      0.00   104.85     0  03:11           0        1.19       0.034
  WSC                  OUTFALL       0.00   686.46     0  03:23           0         9.4       0.000
  JK-storage           STORAGE       0.00   104.85     0  03:11           0        1.34     -21.758
  CC-storage           STORAGE       0.00   144.21     0  03:13           0        1.43       2.179
  XR-storage           STORAGE     240.26   240.26     0  03:01        6.12        6.72      -4.820
  
  
  **********************
  Node Surcharge Summary
  **********************
  
  Surcharging occurs when water rises above the top of the highest conduit.
  ---------------------------------------------------------------------
                                               Max. Height   Min. Depth
                                   Hours       Above Crown    Below Rim
  Node                 Type      Surcharged         Meters       Meters
  ---------------------------------------------------------------------
  WS02006256           JUNCTION        5.09          2.050        0.000
  YS02001762           JUNCTION        1.58          0.103        1.047
  YS02001765           JUNCTION        0.86          0.053        1.047
  YS02001767           JUNCTION        0.23          0.014        1.016
  YS02001774           JUNCTION        1.27          0.081        0.969
  YS02001759           JUNCTION        2.03          0.139        1.071
  YS02001641           JUNCTION        1.05          0.065        1.035
  YS02001644           JUNCTION        1.13          0.070        0.850
  YS02001633           JUNCTION        0.48          0.028        1.032
  YS02001649           JUNCTION        1.70          0.112        0.938
  YS02001757           JUNCTION        3.14          0.242        0.968
  YS02163601           JUNCTION        1.60          0.104        0.976
  YS02164001           JUNCTION        0.74          0.044        1.056
  
  
  *********************
  Node Flooding Summary
  *********************
  
  Flooding refers to all water that overflows a node, whether it ponds or not.
  --------------------------------------------------------------------------
                                                             Total   Maximum
                                 Maximum   Time of Max       Flood    Ponded
                        Hours       Rate    Occurrence      Volume     Depth
  Node                 Flooded       LPS   days hr:min    10^6 ltr    Meters
  --------------------------------------------------------------------------
  WS02006256              0.47    978.40      0  00:00       0.297     0.000
  
  
  **********************
  Storage Volume Summary
  **********************
  
  --------------------------------------------------------------------------------------------------
                         Average     Avg  Evap Exfil       Maximum     Max    Time of Max    Maximum
                          Volume    Pcnt  Pcnt  Pcnt        Volume    Pcnt     Occurrence    Outflow
  Storage Unit           1000 m3    Full  Loss  Loss       1000 m3    Full    days hr:min        LPS
  --------------------------------------------------------------------------------------------------
  JK-storage               0.032      11     0     0         0.151      52       0  00:00     983.00
  CC-storage               0.522       3     0     0         1.398       9       0  07:50       0.00
  XR-storage               0.196      21     0     0         0.600      65       0  00:00     380.00
  
  
  ***********************
  Outfall Loading Summary
  ***********************
  
  ---------------------------------------------------------------------------------------------------------------------------------
                         Flow       Avg       Max       Total         Total         Total         Total         Total         Total
                         Freq      Flow      Flow      Volume           COD            SS            TN            TP         NH4-N
  Outfall Node           Pcnt       LPS       LPS    10^6 ltr            kg            kg            kg            kg            kg
  ---------------------------------------------------------------------------------------------------------------------------------
  WSC                   99.95    336.19    686.46       9.397      1487.659      2378.331       140.043        17.451        87.384
  ---------------------------------------------------------------------------------------------------------------------------------
  System                99.95    336.19    686.46       9.397      1487.659      2378.331       140.043        17.451        87.384
  
  
  ********************
  Link Flow Summary
  ********************
  
  -----------------------------------------------------------------------------
                                 Maximum  Time of Max   Maximum    Max/    Max/
                                  |Flow|   Occurrence   |Veloc|    Full    Full
  Link                 Type          LPS  days hr:min     m/sec    Flow   Depth
  -----------------------------------------------------------------------------
  WS02003066WSF200     CONDUIT    282.54     0  03:21      2.44    0.05    0.16
  WS02006287WS02006284 CONDUIT     62.91     0  03:03      1.05    0.03    0.13
  WS02006284WS02006280 CONDUIT     62.98     0  03:03      1.31    0.03    0.11
  WS02006280WS02006229 CONDUIT     62.98     0  03:03      2.10    0.01    0.08
  WS02006229WS02006228 CONDUIT    296.89     0  03:07      0.96    0.98    0.86
  WS02006256WS02006235 CONDUIT    288.60     0  00:00      4.23    3.05    1.00
  WS02006253WS02006251 CONDUIT     10.53     0  03:02      0.30    0.03    0.15
  WS02006252WS02006251 CONDUIT      0.00     0  00:00      0.00    0.00    0.00
  WS02006251WS02006249 CONDUIT     10.57     0  03:03      0.33    0.03    0.14
  WS02006249WS02006248 CONDUIT     10.61     0  03:03      0.39    0.06    0.13
  WS02006248WS02006247 CONDUIT     13.63     0  03:07      0.40    0.03    0.19
  WS02006247WS02006245 CONDUIT     19.32     0  03:07      0.37    0.15    0.26
  WS02006245WS02006243 CONDUIT     27.58     0  04:21      0.47    0.08    0.31
  WS02006243WS02006242 CONDUIT     52.39     0  04:21      0.45    0.11    0.45
  WS02006242WS02006240 CONDUIT     68.45     0  04:20      0.90    0.27    0.56
  WS02006240WS02006239 CONDUIT     82.10     0  04:20      0.76    0.26    0.58
  WS02006239WS02006238 CONDUIT    121.08     0  00:01      0.88    0.39    0.70
  WS02006238WS02006235 CONDUIT    164.86     0  00:00      1.46    0.37    0.74
  WS02006235WS02006234 CONDUIT    244.60     0  04:18      1.09    2.58    0.68
  WS02006234WS02006232 CONDUIT    244.00     0  04:18      1.39    0.49    0.75
  WS02006232WS02006231 CONDUIT    243.48     0  04:18      0.83    0.51    0.71
  WS02006231WS02006230 CONDUIT    242.86     0  04:19      1.18    3.68    0.53
  WS02006230WS02006229 CONDUIT    252.66     0  04:19      0.90    5.62    0.92
  WS02006228WS02006109 CONDUIT    296.09     0  03:07      0.79    1.29    0.89
  WS02006116WS02004401 CONDUIT    288.85     0  03:11      0.56    0.40    0.64
  WS02006115WS02006116 CONDUIT    292.17     0  03:10      0.71    0.37    0.55
  WS02006113WS02006111 CONDUIT    299.55     0  03:09      2.00    0.36    0.34
  WS02006112WS02006115 CONDUIT    295.28     0  03:10      0.56    0.17    0.67
  WS02006111WS02006112 CONDUIT    296.77     0  03:09      0.93    0.14    0.62
  WS02006110WS02006113 CONDUIT    296.93     0  03:08      0.84    0.27    0.66
  WS02006109WS02006110 CONDUIT    297.22     0  03:08      0.66    0.57    0.84
  WS02004411WS02004412 CONDUIT    282.89     0  03:19      0.68    0.40    0.52
  WS02004401WS02004402 CONDUIT    286.57     0  03:11      0.52    0.34    0.67
  WS02004413WS02003067 CONDUIT    282.54     0  03:21      0.79    0.12    0.47
  WS02004412WS02004413 CONDUIT    282.65     0  03:20      0.56    0.19    0.62
  WS02004410WS02004411 CONDUIT    283.28     0  03:19      0.73    0.39    0.50
  WS02004409WS02004410 CONDUIT    283.86     0  03:17      0.79    0.37    0.48
  WS02004407WS02004409 CONDUIT    284.98     0  03:16      1.25    0.10    0.34
  WS02004406WS02004407 CONDUIT    285.00     0  03:16      0.71    0.13    0.51
  WS02004405WS02004406 CONDUIT    285.14     0  03:13      0.43    0.56    0.79
  WS02004404WS02004405 CONDUIT    285.33     0  03:13      0.46    2.80    0.79
  WS02004403WS02004404 CONDUIT    285.33     0  03:13      0.51    0.21    0.75
  WS02004402WS02004403 CONDUIT    285.67     0  03:13      0.50    0.41    0.70
  WS02004139WS02001211 CONDUIT    380.73     0  04:41      0.90    0.48    0.58
  WS02004138WS02004139 CONDUIT    396.19     0  00:00      3.65    0.08    0.43
  WS02003067WS02003066 CONDUIT    282.54     0  03:21      0.84    0.09    0.34
  WS02001213WS02003059 CONDUIT    389.99     0  04:39      0.88    0.64    0.72
  WS02001212WS02001213 CONDUIT    389.07     0  04:40      1.32    0.60    0.43
  WS02001211WS02001212 CONDUIT    388.57     0  04:40      0.78    0.30    0.62
  WS02003072WS02003073 CONDUIT    684.81     0  03:23      1.55    1.48    0.41
  WS02003069WS02003072 CONDUIT    684.90     0  03:22      1.47    0.33    0.43
  WS02003060WS02003069 CONDUIT    684.71     0  03:22      1.73    0.27    0.38
  WS02003059WS02003060 CONDUIT    391.31     0  04:39      0.95    0.26    0.59
  HS02004901HS02004770 CONDUIT      2.66     0  03:02      0.03    0.01    0.21
  HS02004876HS02004881 CONDUIT      9.21     0  03:02      0.26    0.10    0.05
  HS02004870HS02004876 CONDUIT      7.31     0  03:01      0.19    0.00    0.06
  HS02004842HS02004848 CONDUIT      2.47     0  03:01      0.01    0.00    0.25
  HS02004837HS02004842 CONDUIT      4.48     0  00:03      0.42    0.00    0.27
  HS02004830HS02004837 CONDUIT     12.31     0  03:01      0.33    0.01    0.05
  HS02004824HS02004830 CONDUIT     12.43     0  03:02      0.37    0.02    0.05
  HS02004817HS02004824 CONDUIT     17.36     0  03:01      0.17    0.01    0.34
  HS02004770HS02004777 CONDUIT     13.60     0  03:01      0.09    0.02    0.22
  HS02004799HS02004480 CONDUIT     35.51     0  03:01      0.29    0.04    0.17
  HS02004792HS02004799 CONDUIT     32.56     0  03:01      0.35    0.02    0.13
  HS02004788HS02004792 CONDUIT     19.11     0  03:02      0.52    0.01    0.05
  HS02004785HS02004788 CONDUIT     13.38     0  03:03      0.27    0.10    0.07
  HS02004777HS02004785 CONDUIT     13.41     0  03:02      0.11    0.02    0.17
  HS02004480HS02004478 CONDUIT     41.51     0  03:02      0.55    0.17    0.11
  HS02004479HS02004480 CONDUIT      6.52     0  03:04      0.17    0.01    0.18
  HS02004862HS02004870 CONDUIT      5.27     0  03:02      0.27    0.01    0.03
  HS02004848HS02004852 CONDUIT      1.75     0  03:02      0.17    0.00    0.01
  HS02004856HS02004862 CONDUIT      3.21     0  03:02      0.19    0.00    0.02
  HS02004852HS02004856 CONDUIT      1.71     0  03:03      0.04    0.00    0.07
  HS02004802HS02004478 CONDUIT     21.51     0  03:03      0.18    0.02    0.17
  HS02004478WS02006287 CONDUIT     62.93     0  03:02      0.76    0.02    0.09
  HS02004817HS02004807 CONDUIT     17.92     0  03:03      0.06    0.01    0.42
  HS02004807HS02004802 CONDUIT     21.50     0  03:02      0.19    0.04    0.21
  YS02001759YS02001757 CONDUIT     58.60     0  03:11      0.12    0.04    1.00
  YS02001762YS02001759 CONDUIT     31.59     0  03:11      0.17    0.04    1.00
  YS02001765YS02001762 CONDUIT     31.98     0  03:11      0.24    0.03    1.00
  YS02001770YS02001767 CONDUIT     34.63     0  02:55      0.21    0.14    1.00
  YS02001774YS02001770 CONDUIT     15.01     0  02:52      0.11    0.01    0.99
  YS02001779YS02001774 CONDUIT      6.19     0  02:52      0.02    0.00    0.91
  YS02001649YS02001757 CONDUIT     84.00     0  03:08      0.13    0.05    1.00
  YS02001767YS02001765 CONDUIT     31.95     0  03:12      0.24    0.04    1.00
  YS02006561YS02001783 CONDUIT    103.53     0  03:09      1.33    0.05    0.21
  YS02001783YS02001784 CONDUIT    103.53     0  03:09      0.86    0.14    0.29
  YS02001784YS02001785 CONDUIT    104.58     0  03:10      0.87    0.24    0.29
  YS02001788YS02001790 CONDUIT    104.70     0  03:11      1.38    0.08    0.21
  YS02001790YS02001791 CONDUIT    104.85     0  03:11      1.58    0.11    0.19
  YS02001791YS02001793 CONDUIT    104.85     0  03:11      3.06    0.05    0.13
  YS02001910YS02001907 CONDUIT     31.87     0  03:11      0.49    0.02    0.56
  YS02001786YS02001788 CONDUIT    104.64     0  03:10      1.23    0.20    0.23
  YS02001915YS02001910 CONDUIT     31.96     0  03:08      0.46    0.02    0.35
  YS02001918YS02001915 CONDUIT     11.74     0  03:09      0.44    0.01    0.15
  YS02001923YS02001920 CONDUIT      8.89     0  03:06      0.24    0.00    0.09
  YS02001926YS02001923 CONDUIT      8.85     0  03:05      0.31    0.01    0.08
  YS02001929YS02001926 CONDUIT      8.88     0  03:01      0.32    0.00    0.08
  YS02001920YS02001918 CONDUIT     11.75     0  03:07      0.29    0.01    0.10
  YS02001629YS02163301 CONDUIT     20.29     0  03:00      0.05    0.02    0.97
  YS02001619YS02001622 CONDUIT     21.54     0  03:01      0.41    0.03    0.59
  YS02001622YS02001625 CONDUIT     22.29     0  02:58      0.15    0.01    0.75
  YS02001625YS02001629 CONDUIT     20.65     0  03:01      0.11    0.01    0.74
  YS02163301YS02001633 CONDUIT     21.23     0  03:00      0.05    0.02    0.99
  YS02163601YS02164001 CONDUIT     41.84     0  03:00      0.08    0.04    1.00
  YS02164001YS02001641 CONDUIT     40.11     0  03:07      0.08    0.05    1.00
  YS02001641YS02001644 CONDUIT     38.90     0  03:09      0.08    0.13    1.00
  YS02001647YS02001649 CONDUIT     59.25     0  03:08      0.12    0.03    0.95
  YS02006553YS02006556 CONDUIT     70.89     0  03:11      0.18    0.06    0.65
  YS02006556YS02006558 CONDUIT     70.94     0  03:11      0.13    0.06    0.67
  YSB6556YSB1171       CONDUIT      3.60     0  03:04      0.03    0.00    0.44
  YS02001907YS02006553 CONDUIT     70.81     0  03:11      0.11    0.08    0.74
  YS02006558YS02006561 CONDUIT    103.53     0  03:09      1.70    0.23    0.27
  YS02001633YS02163601 CONDUIT     42.44     0  02:59      0.08    0.04    1.00
  YS02001644YS02001647 CONDUIT     60.39     0  03:09      0.13    0.04    0.95
  YS02001745YS02001748 CONDUIT     22.90     0  03:01      1.02    0.01    0.19
  YS02001748YS02001751 CONDUIT     26.17     0  06:13      0.78    0.01    0.52
  YS02001751YS02001754 CONDUIT     26.72     0  04:24      0.65    0.01    0.73
  YS02001754YS02001757 CONDUIT     32.08     0  04:37      0.33    0.01    0.95
  YS02001882YS02001884 CONDUIT      0.84     0  02:16      0.05    0.00    0.28
  YS02001884YS02001887 CONDUIT      2.55     0  01:54      0.03    0.00    0.38
  YS02001890YS02001895 CONDUIT     39.34     0  03:04      0.16    0.02    0.35
  YS02001895YS02001898 CONDUIT     39.08     0  03:05      0.32    0.07    0.21
  YS02001898YS02001901 CONDUIT     38.96     0  03:07      0.20    0.03    0.29
  YS02001901YS02001904 CONDUIT     38.96     0  03:09      0.20    0.06    0.34
  YS02001904YS02001907 CONDUIT     39.00     0  03:09      0.10    0.01    0.50
  YS02001887YS02001890 CONDUIT     39.72     0  03:02      0.12    0.07    0.43
  YS02001652YS02001649 CONDUIT     31.38     0  03:03      0.35    0.02    0.95
  YS02001655YS02001652 CONDUIT     31.51     0  02:57      0.68    0.02    0.77
  YS02001658YS02001655 CONDUIT     28.90     0  03:02      0.88    0.01    0.51
  YS02001661YS02001658 CONDUIT     28.95     0  03:01      1.05    0.01    0.20
  YS02001664YS02001661 CONDUIT     29.01     0  03:01      0.65    0.01    0.11
  YSB1154YSB6556       CONDUIT      3.62     0  03:01      0.19    0.01    0.33
  YSB1174YSB1171       CONDUIT      2.89     0  03:01      0.02    0.00    0.45
  YSB1171HS02004479    CONDUIT      6.37     0  03:04      0.54    0.00    0.33
  HS02004881HS02006253 CONDUIT     10.28     0  03:02      0.99    0.00    0.01
  YS02001793JiankangQianchi CONDUIT    104.85     0  03:11      9.51    0.01    0.53
  YS02001757CaochengTiaoxuchi CONDUIT    144.21     0  03:13      0.43    0.06    0.75
  WSF200WS02003060     CONDUIT    282.53     0  03:21      1.37    0.06    0.26
  1                    CONDUIT    686.46     0  03:23      3.00    0.24    0.33
  CC-Pump-1            PUMP         0.00     0  00:00              0.00
  CC-Pump-2            PUMP         0.00     0  00:00              0.00
  JK-Pump-1            PUMP       300.00     0  00:00              1.00
  JK-Pump-2            PUMP       683.00     0  00:00              1.00
  XR-Pump-1            PUMP        95.00     0  00:00              1.00
  XR-Pump-2            PUMP        95.00     0  00:00              1.00
  XR-Pump-3            PUMP        95.00     0  00:00              1.00
  XR-Pump-4            PUMP        95.00     0  00:00              1.00
  
  
  ***************************
  Flow Classification Summary
  ***************************
  
  -------------------------------------------------------------------------------------
                      Adjusted    ---------- Fraction of Time in Flow Class ---------- 
                       /Actual         Up    Down  Sub   Sup   Up    Down  Norm  Inlet 
  Conduit               Length    Dry  Dry   Dry   Crit  Crit  Crit  Crit  Ltd   Ctrl  
  -------------------------------------------------------------------------------------
  WS02003066WSF200        1.00   0.05  0.19  0.00  0.00  0.76  0.00  0.00  0.71  0.00
  WS02006287WS02006284    1.00   0.08  0.06  0.00  0.63  0.23  0.00  0.00  0.81  0.00
  WS02006284WS02006280    1.00   0.11  0.00  0.00  0.00  0.00  0.00  0.89  0.00  0.00
  WS02006280WS02006229    1.00   0.11  0.00  0.00  0.00  0.00  0.00  0.89  0.00  0.00
  WS02006229WS02006228    1.00   0.00  0.00  0.00  0.99  0.00  0.00  0.01  0.00  0.00
  WS02006256WS02006235    1.00   0.00  0.00  0.00  0.99  0.01  0.00  0.00  0.00  0.00
  WS02006253WS02006251    1.00   0.04  0.05  0.00  0.90  0.00  0.01  0.00  0.00  0.00
  WS02006252WS02006251    1.00   1.00  0.00  0.00  0.00  0.00  0.00  0.00  0.00  0.00
  WS02006251WS02006249    1.00   0.00  0.00  0.00  1.00  0.00  0.00  0.00  0.98  0.00
  WS02006249WS02006248    1.00   0.00  0.02  0.00  0.06  0.00  0.92  0.00  0.00  0.00
  WS02006248WS02006247    1.00   0.02  0.00  0.00  0.94  0.00  0.00  0.04  0.81  0.00
  WS02006247WS02006245    1.00   0.02  0.00  0.00  0.90  0.00  0.00  0.07  0.00  0.00
  WS02006245WS02006243    1.00   0.01  0.00  0.00  0.75  0.00  0.00  0.24  0.12  0.00
  WS02006243WS02006242    1.00   0.01  0.00  0.00  0.99  0.00  0.00  0.00  0.71  0.00
  WS02006242WS02006240    1.00   0.00  0.00  0.00  1.00  0.00  0.00  0.00  0.00  0.00
  WS02006240WS02006239    1.00   0.00  0.00  0.00  0.54  0.00  0.00  0.46  0.03  0.00
  WS02006239WS02006238    1.00   0.00  0.00  0.00  1.00  0.00  0.00  0.00  0.39  0.00
  WS02006238WS02006235    1.00   0.00  0.00  0.00  1.00  0.00  0.00  0.00  0.00  0.00
  WS02006235WS02006234    1.00   0.00  0.00  0.00  0.66  0.00  0.34  0.00  0.00  0.00
  WS02006234WS02006232    1.00   0.00  0.00  0.00  1.00  0.00  0.00  0.00  0.26  0.00
  WS02006232WS02006231    1.00   0.00  0.00  0.00  0.99  0.00  0.01  0.00  0.00  0.00
  WS02006231WS02006230    1.00   0.00  0.00  0.00  0.00  0.00  1.00  0.00  0.00  0.00
  WS02006230WS02006229    1.00   0.00  0.00  0.00  0.99  0.00  0.00  0.01  0.02  0.00
  WS02006228WS02006109    1.00   0.00  0.00  0.00  0.99  0.00  0.00  0.00  0.00  0.00
  WS02006116WS02004401    1.00   0.03  0.00  0.00  0.97  0.00  0.00  0.00  0.01  0.00
  WS02006115WS02006116    1.00   0.03  0.00  0.00  0.92  0.00  0.00  0.05  0.01  0.00
  WS02006113WS02006111    1.00   0.02  0.00  0.00  0.00  0.98  0.00  0.00  0.17  0.00
  WS02006112WS02006115    1.00   0.02  0.01  0.00  0.97  0.00  0.00  0.00  0.00  0.00
  WS02006111WS02006112    1.00   0.02  0.00  0.00  0.98  0.00  0.00  0.00  0.98  0.00
  WS02006110WS02006113    1.00   0.01  0.01  0.00  0.98  0.00  0.00  0.00  0.00  0.00
  WS02006109WS02006110    1.00   0.00  0.01  0.00  0.98  0.00  0.00  0.00  0.00  0.00
  WS02004411WS02004412    1.00   0.17  0.00  0.00  0.83  0.00  0.00  0.00  0.00  0.00
  WS02004401WS02004402    1.00   0.03  0.00  0.00  0.97  0.00  0.00  0.00  0.01  0.00
  WS02004413WS02003067    1.00   0.17  0.05  0.00  0.00  0.00  0.78  0.00  0.00  0.00
  WS02004412WS02004413    1.00   0.17  0.00  0.00  0.83  0.00  0.00  0.00  0.01  0.00
  WS02004410WS02004411    1.00   0.17  0.00  0.00  0.83  0.00  0.00  0.00  0.00  0.00
  WS02004409WS02004410    1.00   0.16  0.00  0.00  0.84  0.00  0.00  0.00  0.00  0.00
  WS02004407WS02004409    1.00   0.16  0.00  0.00  0.83  0.01  0.00  0.00  0.78  0.00
  WS02004406WS02004407    1.00   0.00  0.16  0.00  0.84  0.00  0.00  0.00  0.00  0.00
  WS02004405WS02004406    1.00   0.00  0.00  0.00  1.00  0.00  0.00  0.00  0.02  0.00
  WS02004404WS02004405    1.00   0.00  0.00  0.00  1.00  0.00  0.00  0.00  0.00  0.00
  WS02004403WS02004404    1.00   0.00  0.04  0.00  0.96  0.00  0.00  0.00  0.02  0.00
  WS02004402WS02004403    1.00   0.03  0.00  0.00  0.97  0.00  0.00  0.00  0.00  0.00
  WS02004139WS02001211    1.00   0.00  0.00  0.00  0.99  0.00  0.00  0.00  0.00  0.00
  WS02004138WS02004139    1.00   0.00  0.01  0.00  0.98  0.01  0.00  0.00  1.00  0.00
  WS02003067WS02003066    1.00   0.22  0.01  0.00  0.76  0.00  0.00  0.00  0.00  0.00
  WS02001213WS02003059    1.00   0.00  0.00  0.00  0.99  0.00  0.00  0.00  0.00  0.00
  WS02001212WS02001213    1.00   0.00  0.00  0.00  0.38  0.00  0.61  0.00  0.00  0.00
  WS02001211WS02001212    1.00   0.00  0.00  0.00  1.00  0.00  0.00  0.00  0.00  0.00
  WS02003072WS02003073    1.00   0.00  0.00  0.00  0.00  0.00  0.00  1.00  0.00  0.00
  WS02003069WS02003072    1.00   0.00  0.00  0.00  0.99  0.01  0.00  0.00  0.44  0.00
  WS02003060WS02003069    1.00   0.00  0.00  0.00  0.93  0.07  0.00  0.00  0.37  0.00
  WS02003059WS02003060    1.00   0.00  0.00  0.00  0.99  0.01  0.00  0.00  0.00  0.00
  HS02004901HS02004770    1.00   0.10  0.00  0.00  0.89  0.00  0.00  0.00  0.01  0.00
  HS02004876HS02004881    1.00   0.02  0.00  0.00  0.98  0.00  0.00  0.00  0.00  0.00
  HS02004870HS02004876    1.00   0.01  0.00  0.00  0.99  0.01  0.00  0.00  0.95  0.00
  HS02004842HS02004848    1.00   0.00  0.11  0.00  0.89  0.00  0.00  0.00  0.72  0.00
  HS02004837HS02004842    1.00   0.00  0.00  0.00  0.99  0.01  0.00  0.00  0.11  0.00
  HS02004830HS02004837    1.00   0.00  0.00  0.00  1.00  0.00  0.00  0.00  0.99  0.00
  HS02004824HS02004830    1.00   0.00  0.00  0.00  1.00  0.00  0.00  0.00  0.00  0.00
  HS02004817HS02004824    1.00   0.00  0.00  0.00  1.00  0.00  0.00  0.00  1.00  0.00
  HS02004770HS02004777    1.00   0.00  0.10  0.00  0.89  0.00  0.00  0.00  0.05  0.00
  HS02004799HS02004480    1.00   0.00  0.03  0.00  0.85  0.00  0.11  0.00  0.00  0.00
  HS02004792HS02004799    1.00   0.00  0.00  0.00  0.99  0.01  0.00  0.00  0.98  0.00
  HS02004788HS02004792    1.00   0.00  0.00  0.00  0.99  0.01  0.00  0.00  0.98  0.00
  HS02004785HS02004788    1.00   0.00  0.00  0.00  1.00  0.00  0.00  0.00  0.00  0.00
  HS02004777HS02004785    1.00   0.00  0.00  0.00  1.00  0.00  0.00  0.00  0.19  0.00
  HS02004480HS02004478    1.00   0.11  0.00  0.00  0.62  0.00  0.00  0.26  0.00  0.00
  HS02004479HS02004480    1.00   0.03  0.00  0.00  0.97  0.00  0.00  0.00  0.14  0.00
  HS02004862HS02004870    1.00   0.00  0.00  0.00  1.00  0.00  0.00  0.00  0.08  0.00
  HS02004848HS02004852    1.00   0.11  0.00  0.00  0.89  0.00  0.00  0.00  0.61  0.00
  HS02004856HS02004862    1.00   0.00  0.20  0.00  0.80  0.00  0.00  0.00  0.75  0.00
  HS02004852HS02004856    1.00   0.10  0.02  0.00  0.88  0.00  0.00  0.00  0.84  0.00
  HS02004802HS02004478    1.00   0.11  0.01  0.00  0.88  0.00  0.00  0.00  0.02  0.00
  HS02004478WS02006287    1.00   0.14  0.00  0.00  0.85  0.00  0.00  0.00  0.81  0.00
  HS02004817HS02004807    1.00   0.00  0.11  0.00  0.89  0.00  0.00  0.00  0.00  0.00
  HS02004807HS02004802    1.00   0.11  0.00  0.00  0.88  0.00  0.00  0.01  0.01  0.00
  YS02001759YS02001757    1.00   0.00  0.00  0.00  1.00  0.00  0.00  0.00  0.17  0.00
  YS02001762YS02001759    1.00   0.00  0.00  0.00  1.00  0.00  0.00  0.00  0.04  0.00
  YS02001765YS02001762    1.00   0.00  0.00  0.00  1.00  0.00  0.00  0.00  0.20  0.00
  YS02001770YS02001767    1.00   0.00  0.00  0.00  1.00  0.00  0.00  0.00  0.00  0.00
  YS02001774YS02001770    1.00   0.00  0.12  0.00  0.88  0.00  0.00  0.00  0.07  0.00
  YS02001779YS02001774    1.00   0.00  0.00  0.00  1.00  0.00  0.00  0.00  0.28  0.00
  YS02001649YS02001757    1.00   0.00  0.00  0.00  1.00  0.00  0.00  0.00  0.18  0.00
  YS02001767YS02001765    1.00   0.00  0.00  0.00  1.00  0.00  0.00  0.00  0.01  0.00
  YS02006561YS02001783    1.00   0.21  0.00  0.00  0.00  0.79  0.00  0.00  0.73  0.00
  YS02001783YS02001784    1.00   0.00  0.21  0.00  0.79  0.00  0.00  0.00  0.29  0.00
  YS02001784YS02001785    1.00   0.00  0.00  0.00  1.00  0.00  0.00  0.00  0.26  0.00
  YS02001788YS02001790    1.00   0.00  0.00  0.00  0.23  0.77  0.00  0.00  1.00  0.00
  YS02001790YS02001791    1.00   0.00  0.00  0.00  0.02  0.98  0.00  0.00  0.18  0.00
  YS02001791YS02001793    1.00   0.00  0.00  0.00  0.00  1.00  0.00  0.00  0.00  0.00
  YS02001910YS02001907    1.00   0.00  0.00  0.00  0.97  0.00  0.00  0.02  0.13  0.00
  YS02001786YS02001788    1.00   0.00  0.00  0.00  0.41  0.59  0.00  0.00  0.00  0.00
  YS02001915YS02001910    1.00   0.00  0.00  0.00  0.98  0.01  0.00  0.00  0.24  0.00
  YS02001918YS02001915    1.00   0.00  0.01  0.00  0.98  0.01  0.00  0.00  0.84  0.00
  YS02001923YS02001920    1.00   0.00  0.00  0.00  1.00  0.00  0.00  0.00  1.00  0.00
  YS02001926YS02001923    1.00   0.00  0.06  0.00  0.00  0.00  0.94  0.00  0.00  0.00
  YS02001929YS02001926    1.00   0.00  0.10  0.00  0.90  0.00  0.00  0.00  0.87  0.00
  YS02001920YS02001918    1.00   0.00  0.01  0.00  0.99  0.00  0.00  0.00  0.00  0.00
  YS02001629YS02163301    1.00   0.16  0.02  0.00  0.82  0.00  0.00  0.00  0.00  0.00
  YS02001619YS02001622    1.00   0.10  0.00  0.00  0.90  0.00  0.00  0.00  0.00  0.00
  YS02001622YS02001625    1.00   0.11  0.00  0.00  0.89  0.00  0.00  0.00  0.14  0.00
  YS02001625YS02001629    1.00   0.11  0.12  0.00  0.67  0.00  0.09  0.00  0.00  0.00
  YS02163301YS02001633    1.00   0.00  0.16  0.00  0.84  0.00  0.00  0.00  0.00  0.00
  YS02163601YS02164001    1.00   0.00  0.07  0.00  0.93  0.00  0.00  0.00  0.00  0.00
  YS02164001YS02001641    1.00   0.01  0.06  0.00  0.93  0.00  0.00  0.00  0.07  0.00
  YS02001641YS02001644    1.00   0.00  0.01  0.00  0.99  0.00  0.00  0.00  0.00  0.00
  YS02001647YS02001649    1.00   0.00  0.21  0.00  0.79  0.00  0.00  0.00  0.01  0.00
  YS02006553YS02006556    1.00   0.01  0.00  0.00  0.99  0.00  0.00  0.00  0.03  0.00
  YS02006556YS02006558    1.00   0.00  0.00  0.00  1.00  0.00  0.00  0.00  0.00  0.00
  YSB6556YSB1171          1.00   0.04  0.06  0.00  0.90  0.00  0.00  0.00  0.00  0.00
  YS02001907YS02006553    1.00   0.00  0.02  0.00  0.98  0.00  0.00  0.00  0.00  0.00
  YS02006558YS02006561    1.00   0.21  0.00  0.00  0.00  0.79  0.00  0.00  0.70  0.00
  YS02001633YS02163601    1.00   0.00  0.01  0.00  0.99  0.00  0.00  0.00  0.18  0.00
  YS02001644YS02001647    1.00   0.00  0.21  0.00  0.79  0.00  0.00  0.00  0.00  0.00
  YS02001745YS02001748    1.00   0.00  0.00  0.00  0.42  0.03  0.00  0.55  0.46  0.00
  YS02001748YS02001751    1.00   0.00  0.00  0.00  0.85  0.15  0.00  0.00  0.33  0.00
  YS02001751YS02001754    1.00   0.00  0.00  0.00  0.75  0.00  0.00  0.25  0.06  0.00
  YS02001754YS02001757    1.00   0.00  0.00  0.00  0.99  0.01  0.00  0.00  0.27  0.00
  YS02001882YS02001884    1.00   0.14  0.01  0.00  0.84  0.00  0.00  0.00  0.00  0.00
  YS02001884YS02001887    1.00   0.05  0.04  0.00  0.91  0.00  0.00  0.00  0.00  0.00
  YS02001890YS02001895    1.00   0.00  0.17  0.00  0.83  0.00  0.00  0.00  0.00  0.00
  YS02001895YS02001898    1.00   0.17  0.01  0.00  0.78  0.00  0.04  0.00  0.00  0.00
  YS02001898YS02001901    1.00   0.16  0.01  0.00  0.82  0.00  0.00  0.00  0.03  0.00
  YS02001901YS02001904    1.00   0.16  0.00  0.00  0.84  0.00  0.00  0.00  0.00  0.00
  YS02001904YS02001907    1.00   0.00  0.16  0.00  0.84  0.00  0.00  0.00  0.00  0.00
  YS02001887YS02001890    1.00   0.00  0.00  0.00  0.97  0.00  0.03  0.00  0.00  0.00
  YS02001652YS02001649    1.00   0.00  0.00  0.00  1.00  0.00  0.00  0.00  0.25  0.00
  YS02001655YS02001652    1.00   0.00  0.00  0.00  0.76  0.00  0.00  0.24  0.06  0.00
  YS02001658YS02001655    1.00   0.00  0.13  0.00  0.69  0.18  0.00  0.00  0.36  0.00
  YS02001661YS02001658    1.00   0.13  0.00  0.00  0.44  0.43  0.00  0.00  0.81  0.00
  YS02001664YS02001661    1.00   0.10  0.00  0.00  0.90  0.00  0.00  0.00  0.86  0.00
  YSB1154YSB6556          1.00   0.10  0.00  0.00  0.90  0.00  0.00  0.00  0.02  0.00
  YSB1174YSB1171          1.00   0.04  0.03  0.00  0.92  0.00  0.00  0.00  0.00  0.00
  YSB1171HS02004479       1.00   0.03  0.00  0.00  0.95  0.00  0.00  0.01  0.12  0.00
  HS02004881HS02006253    1.00   0.05  0.00  0.00  0.00  0.00  0.00  0.95  0.00  0.00
  YS02001793JiankangQianchi    1.00   0.00  0.00  0.00  0.62  0.38  0.00  0.00  0.70  0.00
  YS02001757CaochengTiaoxuchi    1.00   0.00  0.33  0.00  0.67  0.00  0.00  0.00  0.00  0.00
  WSF200WS02003060        1.00   0.00  0.05  0.00  0.82  0.13  0.00  0.00  0.82  0.00
  1                       1.00   0.00  0.00  0.00  0.00  1.00  0.00  0.00  0.53  0.00
  
  
  *************************
  Conduit Surcharge Summary
  *************************
  
  ----------------------------------------------------------------------------
                                                           Hours        Hours 
                         --------- Hours Full --------   Above Full   Capacity
  Conduit                Both Ends  Upstream  Dnstream   Normal Flow   Limited
  ----------------------------------------------------------------------------
  WS02006256WS02006235        2.26      2.27      5.08      1.77         0.01
  WS02006235WS02006234        0.01      0.01      0.01      2.00         0.01
  WS02006231WS02006230        0.01      0.01      0.01      2.51         0.01
  WS02006230WS02006229        0.01      0.01      0.01      3.00         0.01
  WS02006228WS02006109        0.01      0.01      0.01      0.61         0.01
  WS02004404WS02004405        0.01      0.01      0.01      2.48         0.01
  WS02003072WS02003073        0.01      0.01      0.01      2.00         0.01
  YS02001759YS02001757        2.03      2.03      3.14      0.01         0.01
  YS02001762YS02001759        1.57      1.57      2.03      0.01         0.01
  YS02001765YS02001762        0.86      0.86      1.57      0.01         0.01
  YS02001770YS02001767        0.12      0.12      0.23      0.01         0.01
  YS02001774YS02001770        0.01      0.01      1.27      0.01         0.01
  YS02001779YS02001774        0.01      0.01      1.27      0.01         0.01
  YS02001649YS02001757        1.70      1.70      3.14      0.01         0.01
  YS02001767YS02001765        0.23      0.23      0.86      0.01         0.01
  YS02163301YS02001633        0.01      0.01      0.80      0.01         0.01
  YS02163601YS02164001        0.74      0.74      1.60      0.01         0.01
  YS02164001YS02001641        0.74      0.74      1.05      0.01         0.01
  YS02001641YS02001644        1.05      1.05      1.13      0.01         0.01
  YS02001647YS02001649        0.01      0.01      1.70      0.01         0.01
  YS02001633YS02163601        0.47      0.47      1.60      0.01         0.01
  YS02001644YS02001647        0.01      0.01      1.13      0.01         0.01
  YS02001754YS02001757        0.01      0.01      3.14      0.01         0.01
  YS02001652YS02001649        0.01      0.01      1.70      0.01         0.01
  YS02001793JiankangQianchi        0.01      0.01      2.25      0.01         0.01
  YS02001757CaochengTiaoxuchi        0.01      0.01      3.14      0.01         0.01
  
  
  ***************
  Pumping Summary
  ***************
  
  ---------------------------------------------------------------------------------------------------------
                                                  Min       Avg       Max     Total     Power    % Time Off
                        Percent   Number of      Flow      Flow      Flow    Volume     Usage    Pump Curve
  Pump                 Utilized   Start-Ups       LPS       LPS       LPS  10^6 ltr     Kw-hr    Low   High
  ---------------------------------------------------------------------------------------------------------
  CC-Pump-1                0.00           0      0.00      0.00      0.00     0.000      0.00    0.0    0.0
  CC-Pump-2                0.00           0      0.00      0.00      0.00     0.000      0.00    0.0    0.0
  JK-Pump-1               40.42           5      0.00    100.61    300.00     1.070     20.34    0.0    0.0
  JK-Pump-2               27.67           5      0.00     90.82    683.00     0.647     12.89    0.0   96.2
  XR-Pump-1               78.74           6      0.00     80.99     95.00     1.796     38.64    0.0    0.0
  XR-Pump-2               78.74           6      0.00     80.99     95.00     1.796     38.64    0.0    0.0
  XR-Pump-3               70.22           6      0.00     78.82     95.00     1.568     33.01    0.0    0.0
  XR-Pump-4               70.22           6      0.00     78.82     95.00     1.568     33.01    0.0    0.0
  
  
  ***************************
  Link Pollutant Load Summary
  ***************************
  
  ------------------------------------------------------------------------------------------
                                 COD            SS            TN            TP         NH4-N
  Link                            kg            kg            kg            kg            kg
  ------------------------------------------------------------------------------------------
  WS02003066WSF200           107.755       170.847         7.880         0.940         4.812
  WS02006287WS02006284        67.382       107.957         5.506         0.671         3.395
  WS02006284WS02006280        67.799       108.626         5.546         0.676         3.420
  WS02006280WS02006229        67.777       108.590         5.544         0.676         3.418
  WS02006229WS02006228       110.914       175.345         8.023         0.954         4.894
  WS02006256WS02006235        40.125        61.824         2.343         0.264         1.398
  WS02006253WS02006251         3.950         6.441         0.181         0.019         0.104
  WS02006252WS02006251         0.000         0.000         0.000         0.000         0.000
  WS02006251WS02006249         4.499         7.319         0.234         0.025         0.136
  WS02006249WS02006248         4.461         7.259         0.230         0.025         0.134
  WS02006248WS02006247         4.544         7.388         0.235         0.025         0.137
  WS02006247WS02006245         4.986         8.071         0.261         0.028         0.153
  WS02006245WS02006243         5.688         9.155         0.300         0.033         0.176
  WS02006243WS02006242         7.752        12.334         0.418         0.046         0.246
  WS02006242WS02006240        11.703        18.407         0.644         0.071         0.381
  WS02006240WS02006239        15.466        24.184         0.871         0.097         0.516
  WS02006239WS02006238        19.330        30.097         1.109         0.124         0.660
  WS02006238WS02006235        21.670        33.683         1.252         0.140         0.745
  WS02006235WS02006234        43.358        67.120         2.504         0.281         1.491
  WS02006234WS02006232        43.898        67.946         2.539         0.285         1.512
  WS02006232WS02006231        43.584        67.465         2.519         0.283         1.501
  WS02006231WS02006230        43.011        66.582         2.482         0.279         1.478
  WS02006230WS02006229        43.492        67.321         2.512         0.282         1.496
  WS02006228WS02006109       110.650       174.922         7.993         0.950         4.875
  WS02006116WS02004401       116.988       185.131         8.583         1.024         5.243
  WS02006115WS02006116       117.471       185.870         8.620         1.028         5.265
  WS02006113WS02006111       117.945       186.605         8.700         1.038         5.317
  WS02006112WS02006115       118.147       186.934         8.674         1.035         5.299
  WS02006111WS02006112       117.889       186.518         8.693         1.038         5.313
  WS02006110WS02006113       118.228       187.057         8.725         1.041         5.332
  WS02006109WS02006110       118.931       188.175         8.785         1.049         5.370
  WS02004411WS02004412       110.935       175.853         8.150         0.973         4.979
  WS02004401WS02004402       116.202       183.908         8.523         1.016         5.206
  WS02004413WS02003067       108.467       171.962         7.940         0.947         4.849
  WS02004412WS02004413       109.747       173.995         8.053         0.961         4.919
  WS02004410WS02004411       111.755       177.128         8.216         0.981         5.020
  WS02004409WS02004410       112.475       178.249         8.272         0.987         5.054
  WS02004407WS02004409       112.943       178.964         8.307         0.991         5.076
  WS02004406WS02004407       112.994       179.025         8.309         0.992         5.077
  WS02004405WS02004406       114.549       181.460         8.435         1.007         5.154
  WS02004404WS02004405       115.273       182.532         8.477         1.012         5.179
  WS02004403WS02004404       114.710       181.602         8.411         1.003         5.138
  WS02004402WS02004403       115.506       182.839         8.472         1.010         5.175
  WS02004139WS02001211      1205.937      1929.050       115.416        14.417        72.103
  WS02004138WS02004139      1206.445      1929.860       115.464        14.423        72.132
  WS02003067WS02003066       107.875       171.037         7.891         0.941         4.819
  WS02001213WS02003059      1252.156      2003.002       119.855        14.972        74.877
  WS02001212WS02001213      1254.108      2006.124       120.041        14.995        74.994
  WS02001211WS02001212      1255.358      2008.124       120.161        15.010        75.068
  WS02003072WS02003073      1472.189      2353.546       138.533        17.261        86.439
  WS02003069WS02003072      1475.405      2358.683       138.843        17.300        86.632
  WS02003060WS02003069      1474.199      2356.738       138.720        17.285        86.555
  WS02003059WS02003060      1252.455      2003.480       119.882        14.975        74.894
  HS02004901HS02004770         0.584         0.927         0.013         0.001         0.006
  HS02004876HS02004881         3.494         5.686         0.174         0.018         0.101
  HS02004870HS02004876         2.971         4.829         0.171         0.019         0.100
  HS02004842HS02004848         0.380         0.598         0.010         0.001         0.004
  HS02004837HS02004842         5.022         8.030         0.467         0.058         0.291
  HS02004830HS02004837        44.228        70.799         4.141         0.516         2.584
  HS02004824HS02004830        44.981        72.003         4.214         0.525         2.629
  HS02004817HS02004824        46.673        74.737         4.276         0.530         2.663
  HS02004770HS02004777         2.511         4.059         0.064         0.004         0.028
  HS02004799HS02004480        21.597        34.507         1.540         0.183         0.933
  HS02004792HS02004799        21.323        34.010         1.582         0.189         0.962
  HS02004788HS02004792        16.471        26.393         1.338         0.162         0.821
  HS02004785HS02004788         4.035         6.510         0.219         0.024         0.126
  HS02004777HS02004785         3.523         5.689         0.171         0.018         0.096
  HS02004480HS02004478        22.805        36.495         1.520         0.178         0.916
  HS02004479HS02004480         5.426         8.721         0.380         0.046         0.232
  HS02004862HS02004870         2.441         3.926         0.159         0.018         0.095
  HS02004848HS02004852         0.311         0.487         0.008         0.000         0.004
  HS02004856HS02004862         0.692         1.134         0.016         0.001         0.007
  HS02004852HS02004856         0.307         0.480         0.008         0.000         0.004
  HS02004802HS02004478        44.921        72.011         4.019         0.497         2.499
  HS02004478WS02006287        67.575       108.265         5.525         0.673         3.406
  HS02004817HS02004807        45.279        72.511         4.143         0.514         2.580
  HS02004807HS02004802        45.499        72.936         4.074         0.504         2.534
  YS02001759YS02001757        20.854        31.379         0.712         0.063         0.388
  YS02001762YS02001759        12.100        18.510         0.515         0.051         0.292
  YS02001765YS02001762        12.381        18.979         0.558         0.056         0.319
  YS02001770YS02001767        10.469        15.815         0.308         0.023         0.159
  YS02001774YS02001770         1.996         3.004         0.063         0.005         0.033
  YS02001779YS02001774         1.793         2.785         0.112         0.013         0.067
  YS02001649YS02001757        26.827        39.152         0.803         0.067         0.411
  YS02001767YS02001765        12.782        19.622         0.591         0.060         0.339
  YS02006561YS02001783        65.108        99.518         3.326         0.360         1.950
  YS02001783YS02001784        65.050        99.432         3.323         0.359         1.948
  YS02001784YS02001785        72.437       111.260         4.035         0.449         2.393
  YS02001788YS02001790        73.150       112.414         4.108         0.458         2.439
  YS02001790YS02001791        74.159       114.035         4.207         0.470         2.501
  YS02001791YS02001793        74.107       113.954         4.202         0.470         2.498
  YS02001910YS02001907        32.329        50.239         2.306         0.269         1.401
  YS02001786YS02001788        72.701       111.690         4.063         0.452         2.411
  YS02001915YS02001910        32.337        50.196         2.288         0.266         1.389
  YS02001918YS02001915        24.605        38.542         2.084         0.255         1.290
  YS02001923YS02001920         4.586         6.497         0.157         0.014         0.086
  YS02001926YS02001923         4.198         5.871         0.118         0.009         0.061
  YS02001929YS02001926         3.874         5.347         0.086         0.005         0.041
  YS02001920YS02001918        24.538        38.425         2.074         0.254         1.284
  YS02001629YS02163301         4.266         6.216         0.116         0.007         0.054
  YS02001619YS02001622         5.885         8.503         0.154         0.009         0.070
  YS02001622YS02001625         5.427         7.865         0.142         0.008         0.064
  YS02001625YS02001629         4.728         6.886         0.125         0.008         0.057
  YS02163301YS02001633         3.995         5.816         0.112         0.008         0.054
  YS02163601YS02164001        13.185        19.221         0.435         0.038         0.231
  YS02164001YS02001641        12.648        18.405         0.406         0.035         0.214
  YS02001641YS02001644        12.495        18.149         0.390         0.033         0.204
  YS02001647YS02001649        19.432        28.036         0.534         0.043         0.271
  YS02006553YS02006556        50.408        77.334         2.808         0.313         1.669
  YS02006556YS02006558        50.450        77.369         2.803         0.312         1.665
  YSB6556YSB1171               2.165         3.488         0.121         0.014         0.072
  YS02001907YS02006553        50.235        77.049         2.784         0.310         1.654
  YS02006558YS02006561        65.122        99.537         3.327         0.360         1.950
  YS02001633YS02163601        13.589        19.730         0.422         0.036         0.220
  YS02001644YS02001647        20.079        28.940         0.551         0.044         0.280
  YS02001745YS02001748         8.278        12.170         0.203         0.011         0.097
  YS02001748YS02001751         9.669        14.434         0.345         0.029         0.186
  YS02001751YS02001754         8.927        13.341         0.309         0.025         0.165
  YS02001754YS02001757        10.023        15.169         0.448         0.044         0.254
  YS02001882YS02001884         0.163         0.238         0.009         0.001         0.005
  YS02001884YS02001887         0.630         0.935         0.030         0.003         0.018
  YS02001890YS02001895        19.397        29.014         0.565         0.051         0.305
  YS02001895YS02001898        19.308        28.886         0.561         0.051         0.302
  YS02001898YS02001901        19.216        28.758         0.557         0.050         0.300
  YS02001901YS02001904        19.269        28.872         0.572         0.052         0.310
  YS02001904YS02001907        19.931        29.979         0.650         0.062         0.359
  YS02001887YS02001890        20.175        30.216         0.628         0.059         0.344
  YS02001652YS02001649         8.935        13.302         0.308         0.027         0.157
  YS02001655YS02001652         9.608        14.330         0.357         0.032         0.187
  YS02001658YS02001655         9.584        14.176         0.320         0.027         0.161
  YS02001661YS02001658         8.473        12.378         0.215         0.014         0.095
  YS02001664YS02001661         8.461        12.356         0.215         0.014         0.095
  YSB1154YSB6556               1.689         2.725         0.062         0.006         0.035
  YSB1174YSB1171               1.458         2.359         0.080         0.009         0.048
  YSB1171HS02004479            5.345         8.598         0.371         0.045         0.227
  HS02004881HS02006253         3.819         6.230         0.180         0.019         0.103
  YS02001793JiankangQianchi        74.409       114.453         4.235         0.474         2.519
  YS02001757CaochengTiaoxuchi        51.037        75.655         1.553         0.128         0.809
  WSF200WS02003060           107.811       170.949         7.892         0.941         4.820
  1                         1487.659      2378.331       140.043        17.451        87.384
  CC-Pump-1                    0.000         0.000         0.000         0.000         0.000
  CC-Pump-2                    0.000         0.000         0.000         0.000         0.000
  JK-Pump-1                   39.691        61.214         2.331         0.263         1.391
  JK-Pump-2                   10.452        15.970         0.598         0.067         0.355
  XR-Pump-1                  323.161       516.936        30.927         3.863        19.321
  XR-Pump-2                  323.161       516.936        30.927         3.863        19.321
  XR-Pump-3                  280.977       449.459        26.892         3.359        16.800
  XR-Pump-4                  280.977       449.459        26.892         3.359        16.800
  

  Analysis begun on:  Tue Jun 15 20:29:52 2021
  Analysis ended on:  Tue Jun 15 20:29:53 2021
  Total elapsed time: 00:00:01