
  EPA STORM WATER MANAGEMENT MODEL - VERSION 5.1 (Build 5.3.0.dev0)
  --------------------------------------------------------------

  WARNING 04: minimum elevation drop used for Conduit WS02004404WS02004405
  WARNING 03: negative offset ignored for Link YS02001904YS02001907
  
  *********************************************************
  NOTE: The summary statistics displayed in this report are
  based on results found at every computational time step,  
  not just on results from each reporting time step.
  *********************************************************
  
  ****************
  Analysis Options
  ****************
  Flow Units ............... LPS
  Process Models:
    Rainfall/Runoff ........ YES
    RDII ................... NO
    Snowmelt ............... NO
    Groundwater ............ NO
    Flow Routing ........... YES
    Ponding Allowed ........ NO
    Water Quality .......... YES
  Infiltration Method ...... HORTON
  Flow Routing Method ...... DYNWAVE
  Surcharge Method ......... EXTRAN
  Starting Date ............ 08/28/2015 08:00:00
  Ending Date .............. 08/28/2015 15:50:00
  Antecedent Dry Days ...... 8.0
  Report Time Step ......... 00:01:00
  Wet Time Step ............ 00:01:00
  Dry Time Step ............ 00:01:00
  Routing Time Step ........ 5.00 sec
  Variable Time Step ....... YES
  Maximum Trials ........... 8
  Number of Threads ........ 4
  Head Tolerance ........... 0.001500 m
  
  
  **************************        Volume         Depth
  Runoff Quantity Continuity     hectare-m            mm
  **************************     ---------       -------
  Total Precipitation ......         1.024         2.242
  Evaporation Loss .........         0.000         0.000
  Infiltration Loss ........         0.258         0.565
  Surface Runoff ...........         0.456         0.999
  Final Storage ............         0.310         0.679
  Continuity Error (%) .....        -0.025
  
  
  **************************           COD            SS            TN            TP         NH4-N
  Runoff Quality Continuity             kg            kg            kg            kg            kg
  **************************    ----------    ----------    ----------    ----------    ----------
  Initial Buildup ..........     41378.656     70582.865      1804.177       168.684      1032.807
  Surface Buildup ..........        11.953        11.083         3.328         0.310         1.979
  Wet Deposition ...........         0.000         0.000         0.000         0.000         0.000
  Sweeping Removal .........         0.000         0.000         0.000         0.000         0.000
  Infiltration Loss ........         6.863        10.584         0.158         0.010         0.072
  BMP Removal ..............         0.000         0.000         0.000         0.000         0.000
  Surface Runoff ...........       156.972       236.868         3.540         0.215         1.652
  Remaining Buildup ........     41226.720     70346.418      1803.805       168.768      1033.061
  Continuity Error (%) .....         0.000         0.000         0.000         0.000         0.000
  
  
  **************************        Volume        Volume
  Flow Routing Continuity        hectare-m      10^6 ltr
  **************************     ---------     ---------
  Dry Weather Inflow .......         0.616         6.165
  Wet Weather Inflow .......         0.456         4.559
  Groundwater Inflow .......         0.000         0.000
  RDII Inflow ..............         0.000         0.000
  External Inflow ..........         0.102         1.024
  External Outflow .........         0.933         9.334
  Flooding Loss ............         0.034         0.341
  Evaporation Loss .........         0.000         0.000
  Exfiltration Loss ........         0.000         0.000
  Initial Stored Volume ....         0.076         0.761
  Final Stored Volume ......         0.330         3.302
  Continuity Error (%) .....        -3.747
  
  
  **************************           COD            SS            TN            TP         NH4-N
  Quality Routing Continuity            kg            kg            kg            kg            kg
  **************************    ----------    ----------    ----------    ----------    ----------
  Dry Weather Inflow .......      1541.201      2465.922       147.955        18.494        92.472
  Wet Weather Inflow .......       156.889       236.751         3.538         0.215         1.651
  Groundwater Inflow .......         0.000         0.000         0.000         0.000         0.000
  RDII Inflow ..............         0.000         0.000         0.000         0.000         0.000
  External Inflow ..........       183.418       293.469        17.608         2.201        11.005
  External Outflow .........      1510.919      2416.360       141.635        17.639        88.351
  Flooding Loss ............        12.307        19.029         0.584         0.062         0.340
  Exfiltration Loss ........         0.000         0.000         0.000         0.000         0.000
  Mass Reacted .............         0.000         0.000         0.000         0.000         0.000
  Initial Stored Mass ......         0.000         0.000         0.000         0.000         0.000
  Final Stored Mass ........       229.081       355.739        15.731         1.841         9.527
  Continuity Error (%) .....         6.867         6.843         6.594         6.546         6.573
  
  
  *************************
  Highest Continuity Errors
  *************************
  Node HS02004842 (41.20%)
  Node YS02001884 (36.03%)
  Node YS02001774 (33.73%)
  Node YS02001625 (14.73%)
  Node YSB1171 (13.27%)
  
  
  ***************************
  Time-Step Critical Elements
  ***************************
  Link WS02006280WS02006229 (51.27%)
  Link YS02001793JiankangQianchi (23.60%)
  Link WS02006238WS02006235 (8.42%)
  Link YS02001649YS02001757 (1.45%)
  Link WS02003066WSF200 (1.14%)
  
  
  ********************************
  Highest Flow Instability Indexes
  ********************************
  Link WS02006113WS02006111 (26)
  Link YS02001759YS02001757 (11)
  Link YS02001754YS02001757 (11)
  Link YS02001649YS02001757 (10)
  Link YS02001644YS02001647 (10)
  
  
  *************************
  Routing Time Step Summary
  *************************
  Minimum Time Step           :     0.50 sec
  Average Time Step           :     3.65 sec
  Maximum Time Step           :     5.00 sec
  Percent in Steady State     :    -0.00
  Average Iterations per Step :     2.22
  Percent Not Converging      :     0.27
  
  
  ***************************
  Subcatchment Runoff Summary
  ***************************
  
  ------------------------------------------------------------------------------------------------------------------------------
                            Total      Total      Total      Total     Imperv       Perv      Total       Total     Peak  Runoff
                           Precip      Runon       Evap      Infil     Runoff     Runoff     Runoff      Runoff   Runoff   Coeff
  Subcatchment                 mm         mm         mm         mm         mm         mm         mm    10^6 ltr      LPS
  ------------------------------------------------------------------------------------------------------------------------------
  sub0                       2.24       0.00       0.00       0.16       2.04       0.00       2.04        0.00     0.51   0.910
  sub1                       2.24       0.00       0.00       0.25       1.91       0.00       1.91        0.01     3.08   0.851
  sub2                       2.24       0.00       0.00       0.83       1.33       0.00       1.33        0.01     2.80   0.595
  sub3                       2.24       0.00       0.00       0.83       1.30       0.00       1.30        0.03     5.91   0.581
  sub4                       2.24       0.00       0.00       0.25       1.78       0.00       1.78        0.04     6.68   0.795
  sub5                       2.24       0.00       0.00       0.16       1.99       0.00       1.99        0.02     5.48   0.889
  sub7                       2.24       0.00       0.00       0.20       1.98       0.00       1.98        0.01     1.81   0.883
  sub8                       2.24       0.00       0.00       0.20       1.97       0.00       1.97        0.01     3.28   0.879
  sub9                       2.24       0.00       0.00       0.20       1.97       0.00       1.97        0.01     2.45   0.878
  sub10                      2.24       0.00       0.00       0.18       1.98       0.00       1.98        0.02     5.41   0.882
  sub11                      2.24       0.00       0.00       0.18       1.99       0.00       1.99        0.02     6.13   0.890
  sub12                      2.24       0.00       0.00       0.29       1.90       0.00       1.90        0.02     4.85   0.849
  sub14                      2.24       0.00       0.00       0.20       1.97       0.00       1.97        0.02     4.80   0.877
  sub15                      2.24       0.00       0.00       0.67       1.51       0.00       1.51        0.03     6.57   0.673
  sub16                      2.24       0.00       0.00       0.74       1.46       0.00       1.46        0.02     4.35   0.652
  sub17                      2.24       0.00       0.00       0.72       1.48       0.00       1.48        0.01     3.55   0.661
  sub22                      2.24       0.00       0.00       0.96       1.24       0.00       1.24        0.08    20.85   0.552
  sub23                      2.24       0.00       0.00       0.83       1.37       0.00       1.37        0.07    17.62   0.611
  sub60                      2.24       0.00       0.00       0.27       1.06       0.00       1.06        0.32    28.01   0.474
  sub61                      2.24       0.00       0.00       0.38       1.20       0.00       1.20        0.37    37.76   0.537
  sub62                      2.24       0.00       0.00       0.18       1.27       0.00       1.27        0.39    37.81   0.566
  sub63                      2.24       0.00       0.00       0.65       1.10       0.00       1.10        0.33    36.19   0.489
  sub64                      2.24       0.00       0.00       0.34       1.01       0.00       1.01        0.31    26.47   0.451
  sub65                      2.24       0.00       0.00       0.29       1.02       0.00       1.02        0.31    26.71   0.454
  sub66                      2.24       0.00       0.00       0.65       0.90       0.00       0.90        0.28    24.82   0.401
  sub67                      2.24       0.00       0.00       0.18       1.47       0.00       1.47        0.45    51.62   0.655
  sub68                      2.24       0.00       0.00       0.31       1.30       0.00       1.30        0.40    42.47   0.579
  sub69                      2.24       0.00       0.00       0.34       1.48       0.00       1.48        0.35    44.87   0.660
  sub70                      2.24       1.51       0.00       1.28       1.60       0.00       1.60        0.37    26.79   0.428
  sub71                      2.24       0.00       0.00       0.18       1.19       0.00       1.19        0.28    25.72   0.530
  sub72                      2.24       0.00       0.00       0.16       0.74       0.00       0.74        0.15    10.72   0.332
  1                          2.24       1.56       0.00       1.27       1.51       0.03       1.53        0.36    24.13   0.403
  2                          2.24       0.00       0.00       1.68       0.45       0.01       0.46        0.18    26.29   0.205
  
  
  ****************************
  Subcatchment Washoff Summary
  ****************************
  
  ------------------------------------------------------------------------------------------
                                 COD            SS            TN            TP         NH4-N
  Subcatchment                    kg            kg            kg            kg            kg
  ------------------------------------------------------------------------------------------
  sub0                         0.176         0.289         0.003         0.000         0.001
  sub1                         0.743         1.237         0.015         0.001         0.007
  sub2                         0.434         0.699         0.011         0.001         0.005
  sub3                         1.026         1.628         0.026         0.002         0.012
  sub4                         1.645         2.710         0.038         0.002         0.018
  sub5                         1.651         2.709         0.030         0.002         0.014
  sub7                         0.406         0.693         0.008         0.001         0.004
  sub8                         0.638         1.108         0.014         0.001         0.007
  sub9                         0.526         0.901         0.011         0.001         0.005
  sub10                        1.411         2.351         0.027         0.002         0.013
  sub11                        1.440         2.440         0.029         0.002         0.014
  sub12                        1.179         1.966         0.022         0.002         0.011
  sub14                        1.095         1.857         0.023         0.001         0.011
  sub15                        1.239         2.003         0.027         0.002         0.012
  sub16                        0.793         1.285         0.017         0.001         0.008
  sub17                        0.710         1.136         0.014         0.001         0.006
  sub22                        3.611         5.714         0.078         0.006         0.035
  sub23                        2.392         3.950         0.062         0.004         0.027
  sub60                        9.970        14.876         0.239         0.013         0.114
  sub61                       13.105        19.487         0.279         0.017         0.133
  sub62                       13.975        21.188         0.322         0.018         0.153
  sub63                       10.204        15.114         0.254         0.016         0.113
  sub64                       11.090        15.919         0.234         0.015         0.109
  sub65                       11.377        16.400         0.242         0.016         0.114
  sub66                        7.240        10.586         0.187         0.011         0.085
  sub67                       21.125        31.726         0.410         0.027         0.197
  sub68                       15.189        22.913         0.339         0.020         0.160
  sub69                       14.963        22.931         0.319         0.020         0.150
  sub70                       19.134        29.443         0.460         0.029         0.207
  sub71                        9.289        14.194         0.232         0.012         0.110
  sub72                        4.769         6.686         0.104         0.006         0.050
  1                            6.877        10.664         0.177         0.011         0.078
  2                            1.644         2.441         0.066         0.004         0.027
  ------------------------------------------------------------------------------------------
  System                     191.069       289.241         4.319         0.264         2.009
  
  
  ******************
  Node Depth Summary
  ******************
  
  ---------------------------------------------------------------------------------
                                 Average  Maximum  Maximum  Time of Max    Reported
                                   Depth    Depth      HGL   Occurrence   Max Depth
  Node                 Type       Meters   Meters   Meters  days hr:min      Meters
  ---------------------------------------------------------------------------------
  WS02001211           JUNCTION     0.62     0.77     5.61     0  03:31        0.77
  WS02001212           JUNCTION     0.34     0.48     5.54     0  03:29        0.48
  WS02001213           JUNCTION     0.55     0.71     5.47     0  03:28        0.71
  WS02003069           JUNCTION     0.31     0.49     5.08     0  03:28        0.49
  WS02003072           JUNCTION     0.38     0.56     4.93     0  03:28        0.56
  WS02003073           JUNCTION     0.22     0.34     4.40     0  03:29        0.34
  WS02003060           JUNCTION     0.28     0.44     5.37     0  03:27        0.44
  WS02003066           JUNCTION     0.12     0.24     5.79     0  03:26        0.24
  WS02003059           JUNCTION     0.60     0.76     5.44     0  03:28        0.76
  WS02003067           JUNCTION     0.33     0.59     5.91     0  03:26        0.59
  WS02004401           JUNCTION     0.42     0.68     6.68     0  03:23        0.68
  WS02004402           JUNCTION     0.45     0.71     6.67     0  03:23        0.71
  WS02004403           JUNCTION     0.48     0.73     6.66     0  03:23        0.73
  WS02004404           JUNCTION     0.55     0.81     6.66     0  03:23        0.81
  WS02004406           JUNCTION     0.57     0.82     6.65     0  03:24        0.82
  WS02004409           JUNCTION     0.22     0.49     6.26     0  03:25        0.49
  WS02004410           JUNCTION     0.24     0.51     6.23     0  03:25        0.51
  WS02004411           JUNCTION     0.26     0.53     6.21     0  03:25        0.53
  WS02004412           JUNCTION     0.28     0.55     6.19     0  03:26        0.55
  WS02004413           JUNCTION     0.42     0.72     6.19     0  03:26        0.72
  WS02004405           JUNCTION     0.55     0.81     6.66     0  03:24        0.81
  WS02006109           JUNCTION     0.47     0.75     7.37     0  03:19        0.75
  WS02006110           JUNCTION     0.49     0.75     7.34     0  03:19        0.75
  WS02006111           JUNCTION     0.11     0.22     6.93     0  03:19        0.22
  WS02006112           JUNCTION     0.56     0.84     6.73     0  03:22        0.84
  WS02006113           JUNCTION     0.16     0.34     7.24     0  03:19        0.34
  WS02006115           JUNCTION     0.30     0.56     6.70     0  03:22        0.56
  WS02006116           JUNCTION     0.38     0.65     6.69     0  03:23        0.65
  WS02006230           JUNCTION     0.36     0.69     7.44     0  03:20        0.69
  WS02006231           JUNCTION     0.17     0.45     7.57     0  03:21        0.45
  WS02006232           JUNCTION     0.27     0.59     7.63     0  03:20        0.59
  WS02006234           JUNCTION     0.16     0.49     7.65     0  03:20        0.49
  WS02006235           JUNCTION     0.19     0.52     7.69     0  03:20        0.52
  WS02006238           JUNCTION     0.21     0.54     7.69     0  03:20        0.54
  WS02006240           JUNCTION     0.12     0.40     7.69     0  03:21        0.40
  WS02006242           JUNCTION     0.15     0.42     7.69     0  03:21        0.42
  WS02006243           JUNCTION     0.06     0.27     7.69     0  03:21        0.27
  WS02006245           JUNCTION     0.06     0.21     7.69     0  03:21        0.21
  WS02006247           JUNCTION     0.06     0.19     7.69     0  03:21        0.19
  WS02006248           JUNCTION     0.04     0.11     7.69     0  03:21        0.11
  WS02006249           JUNCTION     0.06     0.13     7.72     0  03:06        0.13
  WS02006239           JUNCTION     0.15     0.48     7.69     0  03:20        0.48
  WS02006251           JUNCTION     0.04     0.10     7.77     0  03:04        0.10
  WS02006252           JUNCTION     0.00     0.00     8.24     0  00:00        0.00
  WS02006253           JUNCTION     0.07     0.15     7.79     0  03:04        0.15
  WS02006256           JUNCTION     0.66     2.35     9.28     0  00:00        2.35
  WS02004138           JUNCTION     0.13     0.20     7.45     0  00:00        0.19
  WS02004139           JUNCTION     0.56     0.72     5.63     0  03:30        0.72
  WS02004407           JUNCTION     0.10     0.23     6.54     0  03:24        0.23
  WS02006228           JUNCTION     0.44     0.74     7.39     0  03:18        0.74
  WS02006229           JUNCTION     0.40     0.71     7.41     0  03:18        0.71
  WS02006280           JUNCTION     0.04     0.09     8.36     0  03:04        0.09
  WS02006284           JUNCTION     0.33     0.41     8.81     0  03:04        0.41
  WS02006287           JUNCTION     0.06     0.14     9.09     0  03:04        0.14
  WSF200               JUNCTION     0.09     0.21     5.44     0  03:26        0.21
  HS02004901           JUNCTION     0.09     0.16     9.99     0  03:01        0.16
  HS02004881           JUNCTION     0.00     0.01     9.04     0  03:03        0.01
  HS02004876           JUNCTION     0.03     0.07     9.10     0  03:03        0.07
  HS02004870           JUNCTION     0.01     0.02     9.31     0  03:02        0.02
  HS02004862           JUNCTION     0.01     0.03     9.41     0  03:03        0.03
  HS02004856           JUNCTION     0.06     0.09     9.51     0  03:03        0.09
  HS02004852           JUNCTION     0.00     0.01     9.53     0  03:04        0.01
  HS02004848           JUNCTION     0.00     0.01     9.61     0  03:02        0.01
  HS02004842           JUNCTION     0.32     0.34     9.61     0  03:02        0.34
  HS02004837           JUNCTION     0.02     0.03     9.61     0  03:02        0.03
  HS02004830           JUNCTION     0.03     0.05     9.52     0  03:03        0.05
  HS02004824           JUNCTION     0.02     0.03     9.43     0  03:02        0.03
  HS02004817           JUNCTION     0.40     0.47     9.32     0  03:04        0.47
  HS02004807           JUNCTION     0.09     0.15     9.32     0  03:04        0.15
  HS02004802           JUNCTION     0.13     0.18     9.31     0  03:04        0.18
  HS02004799           JUNCTION     0.09     0.17     9.38     0  03:02        0.17
  HS02004792           JUNCTION     0.02     0.05     9.58     0  03:01        0.05
  HS02004788           JUNCTION     0.01     0.04     9.94     0  03:03        0.04
  HS02004785           JUNCTION     0.03     0.08     9.98     0  03:03        0.08
  HS02004777           JUNCTION     0.11     0.19     9.99     0  03:02        0.19
  HS02004770           JUNCTION     0.08     0.16     9.99     0  03:02        0.16
  HS02004480           JUNCTION     0.05     0.12     9.36     0  03:03        0.12
  HS02004479           JUNCTION     0.08     0.16     9.36     0  03:03        0.16
  HS02004478           JUNCTION     0.04     0.08     9.31     0  03:04        0.08
  YS02001745           JUNCTION     0.05     0.07     7.59     0  03:01        0.07
  YS02001748           JUNCTION     0.19     0.51     7.58     0  07:50        0.51
  YS02001751           JUNCTION     0.31     0.71     7.58     0  07:49        0.71
  YS02001754           JUNCTION     0.51     0.98     7.58     0  07:50        0.98
  YS02001762           JUNCTION     0.68     1.19     7.59     0  07:50        1.19
  YS02001765           JUNCTION     0.63     1.14     7.59     0  07:50        1.14
  YS02001767           JUNCTION     0.60     1.10     7.59     0  07:50        1.10
  YS02001770           JUNCTION     0.60     1.09     7.58     0  07:50        1.09
  YS02001774           JUNCTION     0.66     1.16     7.59     0  07:50        1.16
  YS02001779           JUNCTION     0.44     0.90     7.58     0  07:50        0.90
  YS02001882           JUNCTION     0.17     0.28     7.00     0  03:10        0.28
  YS02001884           JUNCTION     0.26     0.38     7.00     0  03:10        0.38
  YS02001759           JUNCTION     0.70     1.22     7.59     0  07:50        1.22
  YS02001887           JUNCTION     0.33     0.46     7.00     0  03:10        0.46
  YS02001890           JUNCTION     0.36     0.49     7.00     0  03:11        0.49
  YS02001898           JUNCTION     0.15     0.25     6.98     0  03:12        0.25
  YS02001901           JUNCTION     0.25     0.38     6.99     0  03:11        0.38
  YS02001904           JUNCTION     0.23     0.35     6.98     0  03:11        0.35
  YS02001907           JUNCTION     0.54     0.70     6.98     0  03:11        0.69
  YS02001910           JUNCTION     0.34     0.48     6.98     0  03:10        0.48
  YS02001915           JUNCTION     0.16     0.27     6.98     0  03:10        0.27
  YS02001918           JUNCTION     0.05     0.06     7.13     0  03:09        0.06
  YS02001619           JUNCTION     0.29     0.66     7.59     0  07:50        0.66
  YS02001629           JUNCTION     0.55     1.04     7.58     0  07:49        1.04
  YS02001641           JUNCTION     0.65     1.15     7.58     0  07:50        1.15
  YS02001644           JUNCTION     0.65     1.15     7.58     0  07:50        1.15
  YS02001652           JUNCTION     0.52     0.99     7.59     0  07:50        0.99
  YS02001655           JUNCTION     0.33     0.74     7.59     0  07:50        0.74
  YS02001920           JUNCTION     0.13     0.15     7.16     0  03:08        0.15
  YS02001923           JUNCTION     0.03     0.05     7.31     0  03:06        0.05
  YS02001926           JUNCTION     0.09     0.12     7.56     0  03:06        0.12
  YS02001929           JUNCTION     0.03     0.05     7.75     0  03:01        0.05
  YS02001658           JUNCTION     0.15     0.44     7.59     0  07:50        0.44
  YS02001661           JUNCTION     0.11     0.18     7.59     0  07:49        0.18
  YS02001664           JUNCTION     0.04     0.07     8.00     0  03:01        0.07
  YS02001622           JUNCTION     0.30     0.68     7.59     0  07:50        0.68
  YS02001633           JUNCTION     0.63     1.13     7.58     0  07:49        1.13
  YS02001649           JUNCTION     0.68     1.20     7.59     0  07:50        1.20
  YS02001757           JUNCTION     0.80     1.32     7.59     0  07:50        1.32
  YS02001895           JUNCTION     0.14     0.25     7.00     0  03:11        0.25
  YS02001625           JUNCTION     0.54     0.98     7.58     0  07:50        0.98
  YS02163301           JUNCTION     0.58     1.07     7.58     0  07:49        1.07
  YS02163601           JUNCTION     0.69     1.19     7.58     0  07:49        1.19
  YS02164001           JUNCTION     0.63     1.13     7.58     0  07:49        1.13
  YS02001647           JUNCTION     0.50     0.97     7.58     0  07:50        0.97
  YSB1154              JUNCTION     0.21     0.31     9.37     0  03:03        0.31
  YSB6556              JUNCTION     0.11     0.20     9.36     0  03:03        0.20
  YSB1174              JUNCTION     0.17     0.26     9.36     0  03:03        0.26
  YSB1171              JUNCTION     0.36     0.46     9.36     0  03:03        0.46
  YS02006553           JUNCTION     0.55     0.70     6.98     0  03:11        0.70
  YS02006561           JUNCTION     0.08     0.14     6.80     0  03:11        0.14
  YS02006556           JUNCTION     0.52     0.67     6.98     0  03:11        0.67
  YS02006558           JUNCTION     0.56     0.72     6.98     0  03:11        0.72
  YS02001783           JUNCTION     0.13     0.24     6.38     0  03:11        0.24
  YS02001784           JUNCTION     0.16     0.27     6.34     0  03:12        0.27
  YS02001786           JUNCTION     0.14     0.23     6.26     0  03:12        0.23
  YS02001788           JUNCTION     0.10     0.16     6.14     0  03:12        0.16
  YS02001790           JUNCTION     0.12     0.20     5.85     0  03:13        0.20
  YS02001791           JUNCTION     0.08     0.14     5.61     0  03:13        0.14
  YS02001793           JUNCTION     0.04     0.09     4.92     0  03:20        0.09
  WSC                  OUTFALL      0.22     0.34     1.01     0  03:29        0.34
  JK-storage           STORAGE      0.82     3.37     4.17     0  04:13        3.37
  CC-storage           STORAGE      0.21     0.58     7.58     0  07:50        0.58
  XR-storage           STORAGE      1.93     5.35     3.35     0  06:51        5.35
  
  
  *******************
  Node Inflow Summary
  *******************
  
  -------------------------------------------------------------------------------------------------
                                  Maximum  Maximum                  Lateral       Total        Flow
                                  Lateral    Total  Time of Max      Inflow      Inflow     Balance
                                   Inflow   Inflow   Occurrence      Volume      Volume       Error
  Node                 Type           LPS      LPS  days hr:min    10^6 ltr    10^6 ltr     Percent
  -------------------------------------------------------------------------------------------------
  WS02001211           JUNCTION      7.35   388.17     0  03:38       0.207        7.12       0.554
  WS02001212           JUNCTION      0.00   388.77     0  03:38           0        7.08       0.353
  WS02001213           JUNCTION      0.00   389.38     0  03:38           0        7.06       0.348
  WS02003069           JUNCTION      0.32   704.25     0  03:27     0.00902        9.37       0.242
  WS02003072           JUNCTION      0.00   703.93     0  03:28           0        9.35       0.323
  WS02003073           JUNCTION      1.82   705.59     0  03:29      0.0514        9.37       0.352
  WS02003060           JUNCTION     16.53   704.02     0  03:27       0.466        9.39       0.239
  WS02003066           JUNCTION      0.00   306.11     0  03:26           0        1.92       0.074
  WS02003059           JUNCTION      0.00   390.45     0  03:37           0        7.04       0.519
  WS02003067           JUNCTION      0.00   306.06     0  03:26           0        1.93       0.225
  WS02004401           JUNCTION      0.00   318.83     0  03:22           0        2.03       0.523
  WS02004402           JUNCTION      0.00   317.69     0  03:23           0        2.02       0.534
  WS02004403           JUNCTION      0.00   316.95     0  03:23           0        2.01       0.518
  WS02004404           JUNCTION      0.16   316.54     0  03:23     0.00457           2       0.427
  WS02004406           JUNCTION      0.00   315.88     0  03:23           0        1.98       1.068
  WS02004409           JUNCTION      0.00   315.33     0  03:24           0        1.96       0.155
  WS02004410           JUNCTION      0.00   313.01     0  03:24           0        1.96       0.244
  WS02004411           JUNCTION      0.00   310.70     0  03:25           0        1.95       0.306
  WS02004412           JUNCTION      0.00   308.91     0  03:25           0        1.95       0.407
  WS02004413           JUNCTION      0.00   307.32     0  03:26           0        1.94       0.712
  WS02004405           JUNCTION      0.04   316.25     0  03:23     0.00107           2       0.656
  WS02006109           JUNCTION      1.23   323.61     0  03:18      0.0347        2.07       0.469
  WS02006110           JUNCTION      0.00   323.61     0  03:19           0        2.06       0.405
  WS02006111           JUNCTION      0.00   326.91     0  03:19           0        2.05       0.042
  WS02006112           JUNCTION      3.55   324.51     0  03:19      0.0127        2.06       0.755
  WS02006113           JUNCTION      0.00   323.52     0  03:19           0        2.05       0.087
  WS02006115           JUNCTION      0.00   322.24     0  03:22           0        2.05       0.343
  WS02006116           JUNCTION      0.00   320.27     0  03:22           0        2.04       0.390
  WS02006230           JUNCTION     10.28   265.88     0  03:21        0.29        1.52       0.362
  WS02006231           JUNCTION      0.00   255.80     0  03:20           0        1.22      -0.145
  WS02006232           JUNCTION      0.00   256.09     0  03:20           0        1.23       0.555
  WS02006234           JUNCTION      0.00   256.44     0  03:20           0        1.23      -0.462
  WS02006235           JUNCTION      0.00   288.60     0  00:00           0        1.35       0.564
  WS02006238           JUNCTION      0.00   164.86     0  00:00           0       0.281       0.015
  WS02006240           JUNCTION      0.00    80.36     0  00:02           0       0.181       0.277
  WS02006242           JUNCTION      0.00    65.03     0  00:03           0       0.133       0.698
  WS02006243           JUNCTION      0.00    31.87     0  03:23           0      0.0951      -0.041
  WS02006245           JUNCTION      0.00    23.25     0  03:24           0      0.0804       1.468
  WS02006247           JUNCTION      0.00    14.75     0  03:24           0       0.074       0.233
  WS02006248           JUNCTION      0.00    14.72     0  03:06           0      0.0714       0.039
  WS02006249           JUNCTION      0.00    14.84     0  03:04           0      0.0715       0.550
  WS02006239           JUNCTION      0.00   121.08     0  00:01           0       0.232       0.006
  WS02006251           JUNCTION      0.08    14.92     0  03:03     0.00217      0.0716       0.121
  WS02006252           JUNCTION      0.00     0.00     0  00:00           0           0       0.000 ltr
  WS02006253           JUNCTION      0.51    14.88     0  03:03     0.00165      0.0695       0.224
  WS02006256           JUNCTION      0.00   983.00     0  00:00           0        1.51      -0.056
  WS02004138           JUNCTION      0.00   380.00     0  00:00           0        6.95       0.074
  WS02004139           JUNCTION      0.32   396.51     0  00:00     0.00905        6.96       0.646
  WS02004407           JUNCTION      0.00   315.50     0  03:24           0        1.96       0.073
  WS02006228           JUNCTION      0.00   322.38     0  03:18           0        2.04       0.379
  WS02006229           JUNCTION      0.00   322.46     0  03:18           0        2.05       0.329
  WS02006280           JUNCTION      0.00    85.08     0  03:04           0       0.539       0.015
  WS02006284           JUNCTION      0.10    85.08     0  03:04      0.0027        0.54       0.216
  WS02006287           JUNCTION      0.00    85.00     0  03:04           0       0.538       0.129
  WSF200               JUNCTION      0.00   306.06     0  03:26           0        1.92       0.043
  HS02004901           JUNCTION      4.35     4.35     0  03:01      0.0153      0.0155      12.831
  HS02004881           JUNCTION      1.81    14.50     0  03:03     0.00667       0.068       0.089
  HS02004876           JUNCTION      3.08    13.26     0  03:01      0.0127      0.0618       0.856
  HS02004870           JUNCTION      3.28    10.44     0  03:01      0.0126      0.0492       0.220
  HS02004862           JUNCTION      3.00     7.53     0  03:01      0.0181      0.0368       0.459
  HS02004856           JUNCTION      2.45     4.79     0  03:01     0.00946      0.0202       7.677
  HS02004852           JUNCTION      0.00     2.69     0  03:02           0      0.0108       0.454
  HS02004848           JUNCTION      5.91     5.91     0  03:01      0.0293      0.0293       0.153
  HS02004842           JUNCTION      0.00     4.48     0  00:03           0      0.0316      70.055
  HS02004837           JUNCTION     11.76    14.57     0  03:01       0.201       0.219       0.374
  HS02004830           JUNCTION      0.15    14.62     0  03:02     0.00423        0.21       0.590
  HS02004824           JUNCTION      6.73    20.98     0  03:02      0.0386       0.247       0.219
  HS02004817           JUNCTION      0.60    21.57     0  03:02      0.0169       0.264       6.747
  HS02004807           JUNCTION      6.13    26.77     0  03:02      0.0232        0.27       1.591
  HS02004802           JUNCTION      0.00    26.46     0  03:04           0       0.266       1.548
  HS02004799           JUNCTION      4.80    51.04     0  03:01      0.0187       0.252       0.923
  HS02004792           JUNCTION     21.13    46.86     0  03:01       0.086       0.234       0.182
  HS02004788           JUNCTION      8.24    26.84     0  03:02      0.0731       0.149       0.267
  HS02004785           JUNCTION      0.15    19.92     0  03:02     0.00423      0.0779       0.626
  HS02004777           JUNCTION      0.03    20.58     0  03:01    0.000846      0.0781       7.097
  HS02004770           JUNCTION     17.62    21.40     0  03:01      0.0653       0.079       4.098
  HS02004480           JUNCTION      0.00    58.81     0  03:03           0       0.288       0.228
  HS02004479           JUNCTION      0.00     9.19     0  03:04           0      0.0483       1.534
  HS02004478           JUNCTION      0.00    85.00     0  03:03           0       0.539       0.120
  YS02001745           JUNCTION     28.02    28.02     0  03:01       0.322       0.322       0.210
  YS02001748           JUNCTION      0.04    39.47     0  05:29     0.00127       0.344       3.052
  YS02001751           JUNCTION      0.01    53.47     0  05:19     0.00031       0.334       5.506
  YS02001754           JUNCTION      0.26    47.20     0  04:20     0.00733       0.319       8.008
  YS02001762           JUNCTION      0.00    37.47     0  03:16           0       0.315       7.405
  YS02001765           JUNCTION      0.00    39.36     0  03:16           0       0.318       8.336
  YS02001767           JUNCTION      0.54    40.47     0  03:06      0.0151        0.34      11.775
  YS02001770           JUNCTION     37.97    38.00     0  03:05       0.394       0.413       8.335
  YS02001774           JUNCTION      0.00    18.46     0  06:14           0      0.0765      50.900
  YS02001779           JUNCTION      0.01    16.54     0  06:14    0.000141       0.032      81.832
  YS02001882           JUNCTION      0.00     0.94     0  03:00           0     0.00281      92.605
  YS02001884           JUNCTION      0.00     2.88     0  03:01           0      0.0116      56.327
  YS02001759           JUNCTION     37.80    74.70     0  03:16       0.372       0.652       3.768
  YS02001887           JUNCTION     52.07    52.07     0  03:01       0.466        0.47       1.381
  YS02001890           JUNCTION      0.00    48.67     0  03:04           0       0.454       1.579
  YS02001898           JUNCTION      0.00    47.59     0  03:10           0       0.444       0.411
  YS02001901           JUNCTION      0.00    47.56     0  03:09           0       0.444       1.085
  YS02001904           JUNCTION      0.00    47.50     0  03:12           0       0.442       1.017
  YS02001907           JUNCTION      0.00    85.19     0  03:13           0       0.938       2.272
  YS02001910           JUNCTION      0.00    38.02     0  03:08           0       0.508       1.845
  YS02001915           JUNCTION     25.74    38.36     0  03:05       0.281       0.512       0.721
  YS02001918           JUNCTION      0.00    13.52     0  03:08           0       0.231       0.316
  YS02001619           JUNCTION     24.82    24.82     0  03:01       0.275       0.275       3.173
  YS02001629           JUNCTION      0.00    30.61     0  06:07           0       0.215      11.724
  YS02001641           JUNCTION      0.00    47.99     0  03:13           0       0.423       5.342
  YS02001644           JUNCTION     26.51    70.87     0  03:13       0.308       0.704       3.924
  YS02001652           JUNCTION      0.00    38.38     0  03:03           0       0.323       7.598
  YS02001655           JUNCTION      0.15    47.27     0  05:35     0.00434       0.344       5.777
  YS02001920           JUNCTION      2.87    13.54     0  03:06      0.0809       0.233       0.675
  YS02001923           JUNCTION      0.04    10.67     0  03:06     0.00106       0.152       0.125
  YS02001926           JUNCTION      0.05    10.75     0  03:01     0.00147       0.153       0.914
  YS02001929           JUNCTION     10.72    10.72     0  03:01       0.151       0.151       0.119
  YS02001658           JUNCTION      0.00    36.36     0  05:49           0       0.349       2.958
  YS02001661           JUNCTION      0.00    36.13     0  03:01           0       0.331       0.621
  YS02001664           JUNCTION     36.19    36.19     0  03:01       0.332       0.332       0.042
  YS02001622           JUNCTION      0.00    25.05     0  03:04           0       0.267       9.576
  YS02001633           JUNCTION     26.91    51.01     0  03:11       0.319       0.485       7.175
  YS02001649           JUNCTION      0.00   104.83     0  03:12           0       0.938       4.214
  YS02001757           JUNCTION      0.00   191.97     0  03:15           0        1.77       5.532
  YS02001895           JUNCTION      0.00    47.90     0  03:05           0       0.447       0.601
  YS02001625           JUNCTION      0.00    37.16     0  06:10           0       0.251      17.275
  YS02163301           JUNCTION      0.00    25.36     0  03:11           0       0.192      14.376
  YS02163601           JUNCTION      0.11    49.10     0  03:21      0.0031       0.452       7.265
  YS02164001           JUNCTION      0.00    48.02     0  03:13           0       0.429       5.097
  YS02001647           JUNCTION      0.00    71.57     0  03:12           0       0.666       4.312
  YSB1154              JUNCTION      5.48     5.48     0  03:01      0.0226      0.0238       6.460
  YSB6556              JUNCTION      0.00     5.17     0  03:01           0      0.0248       5.296
  YSB1174              JUNCTION      4.85     4.85     0  03:01      0.0166      0.0174       7.959
  YSB1171              JUNCTION      0.00     9.12     0  03:01           0      0.0476      15.300
  YS02006553           JUNCTION      0.00    85.34     0  03:13           0       0.925       1.487
  YS02006561           JUNCTION      0.00   125.03     0  03:11           0        1.31       0.037
  YS02006556           JUNCTION      0.00    85.44     0  03:13           0       0.926       1.062
  YS02006558           JUNCTION     43.35   125.03     0  03:11       0.424        1.33       0.318
  YS02001783           JUNCTION      0.00   125.02     0  03:11           0        1.31       0.085
  YS02001784           JUNCTION      1.06   126.08     0  03:12      0.0299        1.34       0.143
  YS02001786           JUNCTION      0.06   126.13     0  03:12     0.00159        1.34       0.139
  YS02001788           JUNCTION      0.07   126.20     0  03:12       0.002        1.34       0.078
  YS02001790           JUNCTION      0.15   126.35     0  03:12     0.00437        1.34       0.100
  YS02001791           JUNCTION      0.00   126.34     0  03:13           0        1.34       0.049
  YS02001793           JUNCTION      0.00   126.34     0  03:13           0        1.34       0.026
  WSC                  OUTFALL       0.00   705.30     0  03:29           0        9.33       0.000
  JK-storage           STORAGE       0.00   126.34     0  03:13           0        1.49     -10.976
  CC-storage           STORAGE       0.00   174.39     0  03:16           0        1.66       2.195
  XR-storage           STORAGE     250.43   250.43     0  03:01        6.18        6.78      -3.966
  
  
  **********************
  Node Surcharge Summary
  **********************
  
  Surcharging occurs when water rises above the top of the highest conduit.
  ---------------------------------------------------------------------
                                               Max. Height   Min. Depth
                                   Hours       Above Crown    Below Rim
  Node                 Type      Surcharged         Meters       Meters
  ---------------------------------------------------------------------
  WS02006256           JUNCTION        4.60          2.050        0.000
  YS02001762           JUNCTION        2.27          0.185        0.965
  YS02001765           JUNCTION        1.75          0.135        0.965
  YS02001767           JUNCTION        1.31          0.096        0.934
  YS02001770           JUNCTION        0.87          0.060        0.860
  YS02001774           JUNCTION        2.05          0.163        0.887
  YS02001759           JUNCTION        2.61          0.221        0.989
  YS02001641           JUNCTION        1.89          0.148        0.952
  YS02001644           JUNCTION        1.94          0.153        0.767
  YS02001633           JUNCTION        1.48          0.111        0.949
  YS02001649           JUNCTION        2.37          0.195        0.855
  YS02001757           JUNCTION        3.46          0.324        0.886
  YS02163301           JUNCTION        0.97          0.068        0.962
  YS02163601           JUNCTION        2.29          0.187        0.893
  YS02164001           JUNCTION        1.68          0.127        0.973
  
  
  *********************
  Node Flooding Summary
  *********************
  
  Flooding refers to all water that overflows a node, whether it ponds or not.
  --------------------------------------------------------------------------
                                                             Total   Maximum
                                 Maximum   Time of Max       Flood    Ponded
                        Hours       Rate    Occurrence      Volume     Depth
  Node                 Flooded       LPS   days hr:min    10^6 ltr    Meters
  --------------------------------------------------------------------------
  WS02006256              0.47    978.40      0  00:00       0.340     0.000
  
  
  **********************
  Storage Volume Summary
  **********************
  
  --------------------------------------------------------------------------------------------------
                         Average     Avg  Evap Exfil       Maximum     Max    Time of Max    Maximum
                          Volume    Pcnt  Pcnt  Pcnt        Volume    Pcnt     Occurrence    Outflow
  Storage Unit           1000 m3    Full  Loss  Loss       1000 m3    Full    days hr:min        LPS
  --------------------------------------------------------------------------------------------------
  JK-storage               0.041      14     0     0         0.169      58       0  04:13     983.00
  CC-storage               0.592       4     0     0         1.628      10       0  07:50       0.00
  XR-storage               0.232      25     0     0         0.642      69       0  06:51     380.00
  
  
  ***********************
  Outfall Loading Summary
  ***********************
  
  ---------------------------------------------------------------------------------------------------------------------------------
                         Flow       Avg       Max       Total         Total         Total         Total         Total         Total
                         Freq      Flow      Flow      Volume           COD            SS            TN            TP         NH4-N
  Outfall Node           Pcnt       LPS       LPS    10^6 ltr            kg            kg            kg            kg            kg
  ---------------------------------------------------------------------------------------------------------------------------------
  WSC                   99.95    335.81    705.30       9.334      1511.129      2416.696       141.655        17.642        88.364
  ---------------------------------------------------------------------------------------------------------------------------------
  System                99.95    335.81    705.30       9.334      1511.129      2416.696       141.655        17.642        88.364
  
  
  ********************
  Link Flow Summary
  ********************
  
  -----------------------------------------------------------------------------
                                 Maximum  Time of Max   Maximum    Max/    Max/
                                  |Flow|   Occurrence   |Veloc|    Full    Full
  Link                 Type          LPS  days hr:min     m/sec    Flow   Depth
  -----------------------------------------------------------------------------
  WS02003066WSF200     CONDUIT    306.06     0  03:26      2.49    0.05    0.17
  WS02006287WS02006284 CONDUIT     84.98     0  03:04      1.18    0.04    0.15
  WS02006284WS02006280 CONDUIT     85.08     0  03:04      1.43    0.04    0.13
  WS02006280WS02006229 CONDUIT     85.08     0  03:04      2.30    0.02    0.09
  WS02006229WS02006228 CONDUIT    322.38     0  03:18      0.96    1.07    0.89
  WS02006256WS02006235 CONDUIT    288.60     0  00:00      4.23    3.05    1.00
  WS02006253WS02006251 CONDUIT     14.85     0  03:03      0.34    0.04    0.17
  WS02006252WS02006251 CONDUIT      0.00     0  00:00      0.00    0.00    0.00
  WS02006251WS02006249 CONDUIT     14.84     0  03:04      0.37    0.04    0.16
  WS02006249WS02006248 CONDUIT     14.72     0  03:06      0.44    0.08    0.14
  WS02006248WS02006247 CONDUIT     14.75     0  03:24      0.45    0.03    0.21
  WS02006247WS02006245 CONDUIT     23.25     0  03:24      0.40    0.18    0.28
  WS02006245WS02006243 CONDUIT     31.87     0  03:23      0.51    0.09    0.33
  WS02006243WS02006242 CONDUIT     52.67     0  03:23      0.39    0.11    0.47
  WS02006242WS02006240 CONDUIT     65.03     0  00:03      0.90    0.26    0.58
  WS02006240WS02006239 CONDUIT     80.36     0  00:02      0.76    0.25    0.60
  WS02006239WS02006238 CONDUIT    121.08     0  00:01      0.88    0.39    0.72
  WS02006238WS02006235 CONDUIT    164.86     0  00:00      1.46    0.37    0.76
  WS02006235WS02006234 CONDUIT    256.44     0  03:20      1.09    2.71    0.71
  WS02006234WS02006232 CONDUIT    256.09     0  03:20      1.39    0.52    0.77
  WS02006232WS02006231 CONDUIT    255.80     0  03:20      0.85    0.54    0.73
  WS02006231WS02006230 CONDUIT    255.60     0  03:21      1.20    3.88    0.54
  WS02006230WS02006229 CONDUIT    266.22     0  03:21      0.90    5.92    0.97
  WS02006228WS02006109 CONDUIT    322.38     0  03:18      0.79    1.41    0.92
  WS02006116WS02004401 CONDUIT    318.83     0  03:22      0.58    0.44    0.66
  WS02006115WS02006116 CONDUIT    320.27     0  03:22      0.71    0.41    0.57
  WS02006113WS02006111 CONDUIT    326.91     0  03:19      2.06    0.39    0.35
  WS02006112WS02006115 CONDUIT    322.24     0  03:22      0.57    0.19    0.70
  WS02006111WS02006112 CONDUIT    323.39     0  03:19      0.97    0.15    0.63
  WS02006110WS02006113 CONDUIT    323.52     0  03:19      0.88    0.29    0.69
  WS02006109WS02006110 CONDUIT    323.61     0  03:19      0.70    0.62    0.87
  WS02004411WS02004412 CONDUIT    308.91     0  03:25      0.72    0.44    0.54
  WS02004401WS02004402 CONDUIT    317.69     0  03:23      0.55    0.38    0.69
  WS02004413WS02003067 CONDUIT    306.06     0  03:26      0.82    0.13    0.48
  WS02004412WS02004413 CONDUIT    307.32     0  03:26      0.59    0.21    0.63
  WS02004410WS02004411 CONDUIT    310.70     0  03:25      0.75    0.42    0.52
  WS02004409WS02004410 CONDUIT    313.01     0  03:24      0.81    0.40    0.50
  WS02004407WS02004409 CONDUIT    315.33     0  03:24      1.27    0.11    0.36
  WS02004406WS02004407 CONDUIT    315.50     0  03:24      0.76    0.14    0.52
  WS02004405WS02004406 CONDUIT    315.88     0  03:23      0.46    0.62    0.81
  WS02004404WS02004405 CONDUIT    316.21     0  03:23      0.46    3.10    0.81
  WS02004403WS02004404 CONDUIT    316.38     0  03:23      0.51    0.23    0.77
  WS02004402WS02004403 CONDUIT    316.95     0  03:23      0.52    0.46    0.72
  WS02004139WS02001211 CONDUIT    380.82     0  03:38      0.90    0.48    0.58
  WS02004138WS02004139 CONDUIT    396.19     0  00:00      3.65    0.08    0.43
  WS02003067WS02003066 CONDUIT    306.11     0  03:26      0.88    0.10    0.35
  WS02001213WS02003059 CONDUIT    390.45     0  03:37      0.88    0.64    0.72
  WS02001212WS02001213 CONDUIT    389.38     0  03:38      1.32    0.60    0.43
  WS02001211WS02001212 CONDUIT    388.77     0  03:38      0.78    0.30    0.62
  WS02003072WS02003073 CONDUIT    703.76     0  03:29      1.56    1.52    0.42
  WS02003069WS02003072 CONDUIT    703.93     0  03:28      1.48    0.34    0.44
  WS02003060WS02003069 CONDUIT    703.93     0  03:27      1.74    0.28    0.39
  WS02003059WS02003060 CONDUIT    391.99     0  03:37      0.95    0.26    0.60
  HS02004901HS02004770 CONDUIT      4.09     0  03:02      0.03    0.02    0.23
  HS02004876HS02004881 CONDUIT     12.98     0  03:03      0.31    0.14    0.06
  HS02004870HS02004876 CONDUIT     10.36     0  03:02      0.22    0.01    0.07
  HS02004842HS02004848 CONDUIT      3.09     0  03:01      0.02    0.00    0.26
  HS02004837HS02004842 CONDUIT      4.48     0  00:03      0.42    0.00    0.27
  HS02004830HS02004837 CONDUIT     14.47     0  03:02      0.36    0.01    0.06
  HS02004824HS02004830 CONDUIT     14.55     0  03:03      0.40    0.02    0.05
  HS02004817HS02004824 CONDUIT     20.97     0  03:02      0.17    0.01    0.35
  HS02004770HS02004777 CONDUIT     20.55     0  03:01      0.12    0.04    0.25
  HS02004799HS02004480 CONDUIT     50.58     0  03:02      0.36    0.06    0.20
  HS02004792HS02004799 CONDUIT     46.41     0  03:01      0.42    0.03    0.16
  HS02004788HS02004792 CONDUIT     26.75     0  03:03      0.59    0.02    0.07
  HS02004785HS02004788 CONDUIT     19.37     0  03:03      0.32    0.15    0.09
  HS02004777HS02004785 CONDUIT     19.77     0  03:02      0.15    0.02    0.19
  HS02004480HS02004478 CONDUIT     58.76     0  03:03      0.64    0.25    0.13
  HS02004479HS02004480 CONDUIT      9.36     0  03:04      0.16    0.01    0.20
  HS02004862HS02004870 CONDUIT      7.42     0  03:03      0.31    0.01    0.03
  HS02004848HS02004852 CONDUIT      2.69     0  03:02      0.20    0.00    0.02
  HS02004856HS02004862 CONDUIT      4.69     0  03:03      0.22    0.00    0.03
  HS02004852HS02004856 CONDUIT      2.61     0  03:04      0.05    0.00    0.07
  HS02004802HS02004478 CONDUIT     26.59     0  03:05      0.20    0.02    0.19
  HS02004478WS02006287 CONDUIT     85.00     0  03:04      0.88    0.02    0.11
  HS02004817HS02004807 CONDUIT     21.47     0  03:05      0.07    0.01    0.44
  HS02004807HS02004802 CONDUIT     26.46     0  03:04      0.19    0.05    0.23
  YS02001759YS02001757 CONDUIT     74.66     0  03:16      0.12    0.05    1.00
  YS02001762YS02001759 CONDUIT     40.92     0  03:16      0.17    0.05    1.00
  YS02001765YS02001762 CONDUIT     37.47     0  03:16      0.23    0.04    1.00
  YS02001770YS02001767 CONDUIT     39.93     0  03:06      0.20    0.16    1.00
  YS02001774YS02001770 CONDUIT     18.46     0  06:14      0.10    0.01    1.00
  YS02001779YS02001774 CONDUIT     16.54     0  06:14      0.02    0.01    0.95
  YS02001649YS02001757 CONDUIT    104.97     0  03:12      0.16    0.06    1.00
  YS02001767YS02001765 CONDUIT     39.36     0  03:16      0.24    0.05    1.00
  YS02006561YS02001783 CONDUIT    125.02     0  03:11      1.40    0.06    0.23
  YS02001783YS02001784 CONDUIT    125.02     0  03:12      0.92    0.17    0.32
  YS02001784YS02001785 CONDUIT    126.07     0  03:12      0.94    0.29    0.31
  YS02001788YS02001790 CONDUIT    126.19     0  03:12      1.46    0.09    0.23
  YS02001790YS02001791 CONDUIT    126.34     0  03:13      1.66    0.14    0.21
  YS02001791YS02001793 CONDUIT    126.34     0  03:13      3.31    0.05    0.14
  YS02001910YS02001907 CONDUIT     37.92     0  03:11      0.49    0.02    0.58
  YS02001786YS02001788 CONDUIT    126.13     0  03:12      1.30    0.24    0.25
  YS02001915YS02001910 CONDUIT     38.02     0  03:08      0.45    0.02    0.37
  YS02001918YS02001915 CONDUIT     13.51     0  03:09      0.44    0.01    0.16
  YS02001923YS02001920 CONDUIT     10.67     0  03:06      0.26    0.00    0.10
  YS02001926YS02001923 CONDUIT     10.63     0  03:06      0.33    0.02    0.08
  YS02001929YS02001926 CONDUIT     10.69     0  03:01      0.35    0.01    0.08
  YS02001920YS02001918 CONDUIT     13.52     0  03:08      0.31    0.01    0.11
  YS02001629YS02163301 CONDUIT     25.36     0  03:11      0.05    0.03    1.00
  YS02001619YS02001622 CONDUIT     25.05     0  03:04      0.45    0.04    0.67
  YS02001622YS02001625 CONDUIT     25.84     0  03:04      0.14    0.01    0.83
  YS02001625YS02001629 CONDUIT     30.61     0  06:07      0.12    0.01    0.82
  YS02163301YS02001633 CONDUIT     25.37     0  03:11      0.05    0.02    1.00
  YS02163601YS02164001 CONDUIT     48.02     0  03:13      0.08    0.04    1.00
  YS02164001YS02001641 CONDUIT     47.99     0  03:13      0.09    0.07    1.00
  YS02001641YS02001644 CONDUIT     45.93     0  03:13      0.08    0.15    1.00
  YS02001647YS02001649 CONDUIT     70.64     0  03:12      0.14    0.04    0.99
  YS02006553YS02006556 CONDUIT     85.44     0  03:13      0.18    0.07    0.67
  YS02006556YS02006558 CONDUIT     85.52     0  03:13      0.15    0.07    0.69
  YSB6556YSB1171       CONDUIT      5.11     0  03:04      0.03    0.01    0.47
  YS02001907YS02006553 CONDUIT     85.34     0  03:13      0.13    0.10    0.76
  YS02006558YS02006561 CONDUIT    125.03     0  03:11      1.80    0.28    0.29
  YS02001633YS02163601 CONDUIT     48.99     0  03:21      0.08    0.05    1.00
  YS02001644YS02001647 CONDUIT     71.57     0  03:12      0.15    0.04    0.99
  YS02001745YS02001748 CONDUIT     27.96     0  03:01      1.08    0.01    0.25
  YS02001748YS02001751 CONDUIT     53.46     0  05:19      0.81    0.03    0.61
  YS02001751YS02001754 CONDUIT     36.63     0  04:12      0.65    0.02    0.82
  YS02001754YS02001757 CONDUIT     47.25     0  04:12      0.33    0.02    0.99
  YS02001882YS02001884 CONDUIT      0.94     0  03:00      0.05    0.00    0.30
  YS02001884YS02001887 CONDUIT      2.88     0  03:01      0.03    0.00    0.40
  YS02001890YS02001895 CONDUIT     47.90     0  03:05      0.18    0.02    0.37
  YS02001895YS02001898 CONDUIT     47.59     0  03:10      0.35    0.08    0.23
  YS02001898YS02001901 CONDUIT     47.56     0  03:09      0.23    0.03    0.31
  YS02001901YS02001904 CONDUIT     47.50     0  03:12      0.18    0.07    0.36
  YS02001904YS02001907 CONDUIT     47.64     0  03:12      0.11    0.02    0.52
  YS02001887YS02001890 CONDUIT     48.67     0  03:04      0.14    0.08    0.45
  YS02001652YS02001649 CONDUIT     41.66     0  05:36      0.30    0.02    0.99
  YS02001655YS02001652 CONDUIT     38.38     0  03:03      0.68    0.02    0.85
  YS02001658YS02001655 CONDUIT     47.11     0  05:35      0.92    0.02    0.59
  YS02001661YS02001658 CONDUIT     36.02     0  03:01      1.13    0.01    0.28
  YS02001664YS02001661 CONDUIT     36.13     0  03:01      0.73    0.01    0.11
  YSB1154YSB6556       CONDUIT      5.17     0  03:01      0.19    0.01    0.36
  YSB1174YSB1171       CONDUIT      4.52     0  03:01      0.03    0.01    0.48
  YSB1171HS02004479    CONDUIT      9.19     0  03:04      0.54    0.01    0.36
  HS02004881HS02006253 CONDUIT     14.49     0  03:03      1.13    0.00    0.02
  YS02001793JiankangQianchi CONDUIT    126.34     0  03:13     10.02    0.01    0.54
  YS02001757CaochengTiaoxuchi CONDUIT    174.39     0  03:16      0.49    0.08    0.79
  WSF200WS02003060     CONDUIT    305.99     0  03:26      1.59    0.07    0.27
  1                    CONDUIT    705.30     0  03:29      3.02    0.25    0.34
  CC-Pump-1            PUMP         0.00     0  00:00              0.00
  CC-Pump-2            PUMP         0.00     0  00:00              0.00
  JK-Pump-1            PUMP       300.00     0  00:00              1.00
  JK-Pump-2            PUMP       683.00     0  00:00              1.00
  XR-Pump-1            PUMP        95.00     0  00:00              1.00
  XR-Pump-2            PUMP        95.00     0  00:00              1.00
  XR-Pump-3            PUMP        95.00     0  00:00              1.00
  XR-Pump-4            PUMP        95.00     0  00:00              1.00
  
  
  ***************************
  Flow Classification Summary
  ***************************
  
  -------------------------------------------------------------------------------------
                      Adjusted    ---------- Fraction of Time in Flow Class ---------- 
                       /Actual         Up    Down  Sub   Sup   Up    Down  Norm  Inlet 
  Conduit               Length    Dry  Dry   Dry   Crit  Crit  Crit  Crit  Ltd   Ctrl  
  -------------------------------------------------------------------------------------
  WS02003066WSF200        1.00   0.05  0.19  0.00  0.00  0.76  0.00  0.00  0.70  0.00
  WS02006287WS02006284    1.00   0.08  0.06  0.00  0.62  0.24  0.00  0.00  0.81  0.00
  WS02006284WS02006280    1.00   0.11  0.00  0.00  0.00  0.00  0.00  0.89  0.00  0.00
  WS02006280WS02006229    1.00   0.11  0.00  0.00  0.00  0.00  0.00  0.89  0.00  0.00
  WS02006229WS02006228    1.00   0.00  0.00  0.00  0.99  0.00  0.00  0.01  0.00  0.00
  WS02006256WS02006235    1.00   0.00  0.00  0.00  0.99  0.01  0.00  0.00  0.00  0.00
  WS02006253WS02006251    1.00   0.04  0.05  0.00  0.90  0.00  0.01  0.00  0.00  0.00
  WS02006252WS02006251    1.00   1.00  0.00  0.00  0.00  0.00  0.00  0.00  0.00  0.00
  WS02006251WS02006249    1.00   0.00  0.00  0.00  1.00  0.00  0.00  0.00  0.98  0.00
  WS02006249WS02006248    1.00   0.00  0.02  0.00  0.06  0.00  0.92  0.00  0.00  0.00
  WS02006248WS02006247    1.00   0.02  0.00  0.00  0.94  0.00  0.00  0.04  0.83  0.00
  WS02006247WS02006245    1.00   0.02  0.00  0.00  0.90  0.00  0.00  0.07  0.00  0.00
  WS02006245WS02006243    1.00   0.01  0.00  0.00  0.74  0.00  0.00  0.25  0.07  0.00
  WS02006243WS02006242    1.00   0.01  0.00  0.00  0.99  0.00  0.00  0.00  0.78  0.00
  WS02006242WS02006240    1.00   0.00  0.00  0.00  1.00  0.00  0.00  0.00  0.00  0.00
  WS02006240WS02006239    1.00   0.00  0.00  0.00  0.47  0.00  0.00  0.53  0.03  0.00
  WS02006239WS02006238    1.00   0.00  0.00  0.00  1.00  0.00  0.00  0.00  0.45  0.00
  WS02006238WS02006235    1.00   0.00  0.00  0.00  1.00  0.00  0.00  0.00  0.00  0.00
  WS02006235WS02006234    1.00   0.00  0.00  0.00  0.62  0.00  0.38  0.00  0.00  0.00
  WS02006234WS02006232    1.00   0.00  0.00  0.00  1.00  0.00  0.00  0.00  0.32  0.00
  WS02006232WS02006231    1.00   0.00  0.00  0.00  0.99  0.00  0.01  0.00  0.00  0.00
  WS02006231WS02006230    1.00   0.00  0.00  0.00  0.02  0.00  0.98  0.00  0.00  0.00
  WS02006230WS02006229    1.00   0.00  0.00  0.00  0.99  0.00  0.00  0.01  0.02  0.00
  WS02006228WS02006109    1.00   0.00  0.00  0.00  0.99  0.00  0.00  0.00  0.01  0.00
  WS02006116WS02004401    1.00   0.03  0.00  0.00  0.97  0.00  0.00  0.00  0.01  0.00
  WS02006115WS02006116    1.00   0.03  0.00  0.00  0.92  0.00  0.00  0.05  0.01  0.00
  WS02006113WS02006111    1.00   0.02  0.00  0.00  0.00  0.98  0.00  0.00  0.14  0.00
  WS02006112WS02006115    1.00   0.02  0.01  0.00  0.97  0.00  0.00  0.00  0.00  0.00
  WS02006111WS02006112    1.00   0.02  0.00  0.00  0.98  0.00  0.00  0.00  0.98  0.00
  WS02006110WS02006113    1.00   0.01  0.01  0.00  0.98  0.00  0.00  0.00  0.00  0.00
  WS02006109WS02006110    1.00   0.00  0.01  0.00  0.98  0.00  0.00  0.00  0.00  0.00
  WS02004411WS02004412    1.00   0.17  0.00  0.00  0.83  0.00  0.00  0.00  0.00  0.00
  WS02004401WS02004402    1.00   0.03  0.00  0.00  0.97  0.00  0.00  0.00  0.01  0.00
  WS02004413WS02003067    1.00   0.17  0.05  0.00  0.00  0.00  0.78  0.00  0.00  0.00
  WS02004412WS02004413    1.00   0.17  0.00  0.00  0.83  0.00  0.00  0.00  0.02  0.00
  WS02004410WS02004411    1.00   0.17  0.00  0.00  0.83  0.00  0.00  0.00  0.00  0.00
  WS02004409WS02004410    1.00   0.16  0.00  0.00  0.84  0.00  0.00  0.00  0.01  0.00
  WS02004407WS02004409    1.00   0.16  0.00  0.00  0.83  0.01  0.00  0.00  0.78  0.00
  WS02004406WS02004407    1.00   0.00  0.16  0.00  0.84  0.00  0.00  0.00  0.00  0.00
  WS02004405WS02004406    1.00   0.00  0.00  0.00  1.00  0.00  0.00  0.00  0.02  0.00
  WS02004404WS02004405    1.00   0.00  0.00  0.00  1.00  0.00  0.00  0.00  0.00  0.00
  WS02004403WS02004404    1.00   0.00  0.03  0.00  0.97  0.00  0.00  0.00  0.02  0.00
  WS02004402WS02004403    1.00   0.03  0.00  0.00  0.97  0.00  0.00  0.00  0.00  0.00
  WS02004139WS02001211    1.00   0.00  0.00  0.00  0.99  0.00  0.00  0.00  0.00  0.00
  WS02004138WS02004139    1.00   0.00  0.03  0.00  0.96  0.01  0.00  0.00  1.00  0.00
  WS02003067WS02003066    1.00   0.22  0.02  0.00  0.76  0.00  0.00  0.00  0.00  0.00
  WS02001213WS02003059    1.00   0.00  0.00  0.00  0.99  0.00  0.00  0.00  0.00  0.00
  WS02001212WS02001213    1.00   0.00  0.00  0.00  0.38  0.00  0.61  0.00  0.00  0.00
  WS02001211WS02001212    1.00   0.00  0.00  0.00  1.00  0.00  0.00  0.00  0.00  0.00
  WS02003072WS02003073    1.00   0.00  0.00  0.00  0.00  0.00  0.00  1.00  0.00  0.00
  WS02003069WS02003072    1.00   0.00  0.00  0.00  0.99  0.01  0.00  0.00  0.41  0.00
  WS02003060WS02003069    1.00   0.00  0.00  0.00  0.93  0.07  0.00  0.00  0.34  0.00
  WS02003059WS02003060    1.00   0.00  0.00  0.00  0.99  0.01  0.00  0.00  0.00  0.00
  HS02004901HS02004770    1.00   0.10  0.00  0.00  0.89  0.00  0.00  0.00  0.02  0.00
  HS02004876HS02004881    1.00   0.02  0.00  0.00  0.98  0.00  0.00  0.00  0.00  0.00
  HS02004870HS02004876    1.00   0.01  0.00  0.00  0.99  0.01  0.00  0.00  0.95  0.00
  HS02004842HS02004848    1.00   0.00  0.11  0.00  0.89  0.00  0.00  0.00  0.72  0.00
  HS02004837HS02004842    1.00   0.00  0.00  0.00  0.99  0.01  0.00  0.00  0.11  0.00
  HS02004830HS02004837    1.00   0.00  0.00  0.00  1.00  0.00  0.00  0.00  0.99  0.00
  HS02004824HS02004830    1.00   0.00  0.00  0.00  1.00  0.00  0.00  0.00  0.00  0.00
  HS02004817HS02004824    1.00   0.00  0.00  0.00  1.00  0.00  0.00  0.00  1.00  0.00
  HS02004770HS02004777    1.00   0.00  0.11  0.00  0.89  0.00  0.00  0.00  0.06  0.00
  HS02004799HS02004480    1.00   0.00  0.03  0.00  0.85  0.00  0.12  0.00  0.00  0.00
  HS02004792HS02004799    1.00   0.00  0.00  0.00  0.99  0.01  0.00  0.00  0.98  0.00
  HS02004788HS02004792    1.00   0.00  0.00  0.00  0.99  0.01  0.00  0.00  0.98  0.00
  HS02004785HS02004788    1.00   0.00  0.00  0.00  1.00  0.00  0.00  0.00  0.00  0.00
  HS02004777HS02004785    1.00   0.00  0.00  0.00  1.00  0.00  0.00  0.00  0.20  0.00
  HS02004480HS02004478    1.00   0.12  0.00  0.00  0.62  0.00  0.00  0.27  0.00  0.00
  HS02004479HS02004480    1.00   0.03  0.00  0.00  0.97  0.00  0.00  0.00  0.15  0.00
  HS02004862HS02004870    1.00   0.00  0.00  0.00  1.00  0.00  0.00  0.00  0.08  0.00
  HS02004848HS02004852    1.00   0.11  0.00  0.00  0.89  0.00  0.00  0.00  0.61  0.00
  HS02004856HS02004862    1.00   0.00  0.21  0.00  0.79  0.00  0.00  0.00  0.74  0.00
  HS02004852HS02004856    1.00   0.10  0.02  0.00  0.87  0.00  0.00  0.00  0.83  0.00
  HS02004802HS02004478    1.00   0.11  0.02  0.00  0.87  0.00  0.00  0.00  0.01  0.00
  HS02004478WS02006287    1.00   0.14  0.00  0.00  0.85  0.00  0.00  0.00  0.81  0.00
  HS02004817HS02004807    1.00   0.00  0.11  0.00  0.89  0.00  0.00  0.00  0.00  0.00
  HS02004807HS02004802    1.00   0.11  0.00  0.00  0.88  0.00  0.00  0.01  0.01  0.00
  YS02001759YS02001757    1.00   0.00  0.00  0.00  1.00  0.00  0.00  0.00  0.18  0.00
  YS02001762YS02001759    1.00   0.00  0.00  0.00  1.00  0.00  0.00  0.00  0.04  0.00
  YS02001765YS02001762    1.00   0.00  0.00  0.00  1.00  0.00  0.00  0.00  0.21  0.00
  YS02001770YS02001767    1.00   0.00  0.00  0.00  1.00  0.00  0.00  0.00  0.00  0.00
  YS02001774YS02001770    1.00   0.00  0.13  0.00  0.87  0.00  0.00  0.00  0.07  0.00
  YS02001779YS02001774    1.00   0.00  0.00  0.00  1.00  0.00  0.00  0.00  0.30  0.00
  YS02001649YS02001757    1.00   0.00  0.00  0.00  1.00  0.00  0.00  0.00  0.18  0.00
  YS02001767YS02001765    1.00   0.00  0.00  0.00  1.00  0.00  0.00  0.00  0.01  0.00
  YS02006561YS02001783    1.00   0.22  0.00  0.00  0.00  0.78  0.00  0.00  0.72  0.00
  YS02001783YS02001784    1.00   0.00  0.22  0.00  0.78  0.00  0.00  0.00  0.22  0.00
  YS02001784YS02001785    1.00   0.00  0.00  0.00  1.00  0.00  0.00  0.00  0.27  0.00
  YS02001788YS02001790    1.00   0.00  0.00  0.00  0.23  0.77  0.00  0.00  1.00  0.00
  YS02001790YS02001791    1.00   0.00  0.00  0.00  0.02  0.98  0.00  0.00  0.22  0.00
  YS02001791YS02001793    1.00   0.00  0.00  0.00  0.00  1.00  0.00  0.00  0.00  0.00
  YS02001910YS02001907    1.00   0.00  0.00  0.00  0.97  0.00  0.00  0.02  0.13  0.00
  YS02001786YS02001788    1.00   0.00  0.00  0.00  0.34  0.66  0.00  0.00  0.00  0.00
  YS02001915YS02001910    1.00   0.00  0.00  0.00  0.99  0.01  0.00  0.00  0.25  0.00
  YS02001918YS02001915    1.00   0.00  0.01  0.00  0.98  0.01  0.00  0.00  0.83  0.00
  YS02001923YS02001920    1.00   0.00  0.00  0.00  1.00  0.00  0.00  0.00  1.00  0.00
  YS02001926YS02001923    1.00   0.00  0.06  0.00  0.00  0.00  0.94  0.00  0.00  0.00
  YS02001929YS02001926    1.00   0.00  0.10  0.00  0.90  0.00  0.00  0.00  0.87  0.00
  YS02001920YS02001918    1.00   0.00  0.01  0.00  0.99  0.00  0.00  0.00  0.00  0.00
  YS02001629YS02163301    1.00   0.16  0.02  0.00  0.82  0.00  0.00  0.00  0.00  0.00
  YS02001619YS02001622    1.00   0.10  0.00  0.00  0.90  0.00  0.00  0.00  0.00  0.00
  YS02001622YS02001625    1.00   0.11  0.00  0.00  0.89  0.00  0.00  0.00  0.16  0.00
  YS02001625YS02001629    1.00   0.11  0.13  0.00  0.67  0.00  0.09  0.00  0.00  0.00
  YS02163301YS02001633    1.00   0.00  0.16  0.00  0.84  0.00  0.00  0.00  0.00  0.00
  YS02163601YS02164001    1.00   0.00  0.07  0.00  0.93  0.00  0.00  0.00  0.00  0.00
  YS02164001YS02001641    1.00   0.01  0.06  0.00  0.93  0.00  0.00  0.00  0.07  0.00
  YS02001641YS02001644    1.00   0.00  0.01  0.00  0.99  0.00  0.00  0.00  0.00  0.00
  YS02001647YS02001649    1.00   0.00  0.22  0.00  0.78  0.00  0.00  0.00  0.01  0.00
  YS02006553YS02006556    1.00   0.01  0.00  0.00  0.99  0.00  0.00  0.00  0.03  0.00
  YS02006556YS02006558    1.00   0.00  0.00  0.00  1.00  0.00  0.00  0.00  0.00  0.00
  YSB6556YSB1171          1.00   0.04  0.06  0.00  0.90  0.00  0.00  0.00  0.00  0.00
  YS02001907YS02006553    1.00   0.00  0.02  0.00  0.98  0.00  0.00  0.00  0.00  0.00
  YS02006558YS02006561    1.00   0.22  0.00  0.00  0.00  0.78  0.00  0.00  0.69  0.00
  YS02001633YS02163601    1.00   0.00  0.01  0.00  0.99  0.00  0.00  0.00  0.19  0.00
  YS02001644YS02001647    1.00   0.00  0.22  0.00  0.78  0.00  0.00  0.00  0.00  0.00
  YS02001745YS02001748    1.00   0.00  0.00  0.00  0.45  0.03  0.00  0.52  0.43  0.00
  YS02001748YS02001751    1.00   0.00  0.00  0.00  0.85  0.15  0.00  0.00  0.33  0.00
  YS02001751YS02001754    1.00   0.00  0.00  0.00  0.74  0.00  0.00  0.26  0.05  0.00
  YS02001754YS02001757    1.00   0.00  0.00  0.00  0.99  0.01  0.00  0.00  0.28  0.00
  YS02001882YS02001884    1.00   0.15  0.02  0.00  0.83  0.00  0.00  0.00  0.00  0.00
  YS02001884YS02001887    1.00   0.05  0.04  0.00  0.91  0.00  0.00  0.00  0.00  0.00
  YS02001890YS02001895    1.00   0.00  0.17  0.00  0.82  0.00  0.00  0.00  0.00  0.00
  YS02001895YS02001898    1.00   0.18  0.01  0.00  0.77  0.00  0.04  0.00  0.00  0.00
  YS02001898YS02001901    1.00   0.17  0.02  0.00  0.81  0.00  0.00  0.00  0.03  0.00
  YS02001901YS02001904    1.00   0.17  0.00  0.00  0.83  0.00  0.00  0.00  0.00  0.00
  YS02001904YS02001907    1.00   0.00  0.16  0.00  0.83  0.00  0.00  0.00  0.00  0.00
  YS02001887YS02001890    1.00   0.00  0.00  0.00  0.97  0.00  0.03  0.00  0.00  0.00
  YS02001652YS02001649    1.00   0.00  0.00  0.00  1.00  0.00  0.00  0.00  0.27  0.00
  YS02001655YS02001652    1.00   0.00  0.00  0.00  0.75  0.00  0.00  0.25  0.06  0.00
  YS02001658YS02001655    1.00   0.00  0.14  0.00  0.69  0.17  0.00  0.00  0.33  0.00
  YS02001661YS02001658    1.00   0.14  0.00  0.00  0.46  0.40  0.00  0.00  0.68  0.00
  YS02001664YS02001661    1.00   0.10  0.00  0.00  0.90  0.00  0.00  0.00  0.86  0.00
  YSB1154YSB6556          1.00   0.10  0.00  0.00  0.90  0.00  0.00  0.00  0.02  0.00
  YSB1174YSB1171          1.00   0.04  0.03  0.00  0.92  0.00  0.00  0.00  0.00  0.00
  YSB1171HS02004479       1.00   0.03  0.00  0.00  0.95  0.00  0.00  0.01  0.13  0.00
  HS02004881HS02006253    1.00   0.05  0.00  0.00  0.00  0.00  0.00  0.95  0.00  0.00
  YS02001793JiankangQianchi    1.00   0.00  0.00  0.00  0.66  0.33  0.00  0.00  0.76  0.00
  YS02001757CaochengTiaoxuchi    1.00   0.00  0.33  0.00  0.66  0.00  0.00  0.00  0.00  0.00
  WSF200WS02003060        1.00   0.00  0.05  0.00  0.79  0.16  0.00  0.00  0.81  0.00
  1                       1.00   0.00  0.00  0.00  0.00  1.00  0.00  0.00  0.46  0.00
  
  
  *************************
  Conduit Surcharge Summary
  *************************
  
  ----------------------------------------------------------------------------
                                                           Hours        Hours 
                         --------- Hours Full --------   Above Full   Capacity
  Conduit                Both Ends  Upstream  Dnstream   Normal Flow   Limited
  ----------------------------------------------------------------------------
  WS02006229WS02006228        0.01      0.01      0.01      0.14         0.01
  WS02006256WS02006235        1.66      1.67      4.59      1.67         0.01
  WS02006235WS02006234        0.01      0.01      0.01      1.65         0.01
  WS02006231WS02006230        0.01      0.01      0.01      1.81         0.01
  WS02006230WS02006229        0.01      0.01      0.01      2.49         0.01
  WS02006228WS02006109        0.01      0.01      0.01      0.42         0.01
  WS02006111WS02006112        0.01      0.01      0.12      0.01         0.01
  WS02004404WS02004405        0.01      0.01      0.01      1.90         0.01
  WS02003072WS02003073        0.01      0.01      0.01      1.63         0.01
  YS02001759YS02001757        2.61      2.61      3.46      0.01         0.01
  YS02001762YS02001759        2.27      2.27      2.61      0.01         0.01
  YS02001765YS02001762        1.75      1.75      2.27      0.01         0.01
  YS02001770YS02001767        1.25      1.25      1.31      0.01         0.01
  YS02001774YS02001770        0.87      0.87      2.05      0.01         0.01
  YS02001779YS02001774        0.01      0.01      2.05      0.01         0.01
  YS02001649YS02001757        2.37      2.37      3.46      0.01         0.01
  YS02001767YS02001765        1.31      1.31      1.75      0.01         0.01
  YS02001629YS02163301        0.54      0.54      0.97      0.01         0.01
  YS02163301YS02001633        0.97      0.97      1.71      0.01         0.01
  YS02163601YS02164001        1.68      1.68      2.29      0.01         0.01
  YS02164001YS02001641        1.68      1.68      1.89      0.01         0.01
  YS02001641YS02001644        1.89      1.89      1.94      0.01         0.01
  YS02001647YS02001649        0.01      0.01      2.37      0.01         0.01
  YS02001633YS02163601        1.48      1.48      2.29      0.01         0.01
  YS02001644YS02001647        0.01      0.01      1.94      0.01         0.01
  YS02001754YS02001757        0.01      0.01      3.46      0.01         0.01
  YS02001652YS02001649        0.01      0.01      2.37      0.01         0.01
  YS02001793JiankangQianchi        0.01      0.01      2.65      0.01         0.01
  YS02001757CaochengTiaoxuchi        0.01      0.01      3.46      0.01         0.01
  
  
  ***************
  Pumping Summary
  ***************
  
  ---------------------------------------------------------------------------------------------------------
                                                  Min       Avg       Max     Total     Power    % Time Off
                        Percent   Number of      Flow      Flow      Flow    Volume     Usage    Pump Curve
  Pump                 Utilized   Start-Ups       LPS       LPS       LPS  10^6 ltr     Kw-hr    Low   High
  ---------------------------------------------------------------------------------------------------------
  CC-Pump-1                0.00           0      0.00      0.00      0.00     0.000      0.00    0.0    0.0
  CC-Pump-2                0.00           0      0.00      0.00      0.00     0.000      0.00    0.0    0.0
  JK-Pump-1               34.05           4      0.00    111.33    300.00     0.991     18.36    0.0    0.0
  JK-Pump-2               17.01           3      0.00    117.99    683.00     0.512     10.01    0.0   93.1
  XR-Pump-1               76.60           6      0.00     81.72     95.00     1.767     35.78    0.0    0.0
  XR-Pump-2               76.60           6      0.00     81.72     95.00     1.767     35.78    0.0    0.0
  XR-Pump-3               74.47           6      0.00     81.43     95.00     1.710     35.14    0.0    0.0
  XR-Pump-4               74.47           6      0.00     81.43     95.00     1.710     35.14    0.0    0.0
  
  
  ***************************
  Link Pollutant Load Summary
  ***************************
  
  ------------------------------------------------------------------------------------------
                                 COD            SS            TN            TP         NH4-N
  Link                            kg            kg            kg            kg            kg
  ------------------------------------------------------------------------------------------
  WS02003066WSF200           108.097       172.233         7.431         0.876         4.512
  WS02006287WS02006284        70.197       112.983         5.564         0.675         3.422
  WS02006284WS02006280        70.614       113.653         5.604         0.680         3.447
  WS02006280WS02006229        70.593       113.618         5.602         0.680         3.446
  WS02006229WS02006228       111.347       177.362         7.780         0.920         4.732
  WS02006256WS02006235        36.977        57.510         2.030         0.226         1.203
  WS02006253WS02006251         4.519         7.480         0.193         0.019         0.109
  WS02006252WS02006251         0.000         0.000         0.000         0.000         0.000
  WS02006251WS02006249         5.070         8.363         0.246         0.026         0.142
  WS02006249WS02006248         4.979         8.217         0.237         0.025         0.137
  WS02006248WS02006247         5.028         8.298         0.240         0.025         0.138
  WS02006247WS02006245         5.276         8.683         0.251         0.027         0.145
  WS02006245WS02006243         5.652         9.269         0.265         0.028         0.153
  WS02006243WS02006242         6.874        11.169         0.322         0.034         0.186
  WS02006242WS02006240         9.431        15.129         0.454         0.048         0.264
  WS02006240WS02006239        12.051        19.178         0.602         0.065         0.352
  WS02006239WS02006238        15.082        23.841         0.780         0.085         0.458
  WS02006238WS02006235        17.082        26.937         0.891         0.097         0.524
  WS02006235WS02006234        41.301        64.632         2.235         0.247         1.322
  WS02006234WS02006232        41.607        65.097         2.253         0.249         1.333
  WS02006232WS02006231        41.368        64.729         2.238         0.248         1.324
  WS02006231WS02006230        40.945        64.073         2.210         0.245         1.307
  WS02006230WS02006229        41.347        64.692         2.234         0.247         1.321
  WS02006228WS02006109       110.491       175.993         7.692         0.909         4.677
  WS02006116WS02004401       113.937       181.518         7.966         0.942         4.846
  WS02006115WS02006116       114.940       183.117         8.063         0.955         4.906
  WS02006113WS02006111       116.807       186.098         8.301         0.985         5.058
  WS02006112WS02006115       115.792       184.480         8.139         0.964         4.953
  WS02006111WS02006112       116.346       185.359         8.254         0.979         5.028
  WS02006110WS02006113       117.071       186.522         8.324         0.988         5.072
  WS02006109WS02006110       118.068       188.118         8.414         0.999         5.128
  WS02004411WS02004412       109.364       174.257         7.545         0.890         4.584
  WS02004401WS02004402       112.887       179.841         7.870         0.931         4.786
  WS02004413WS02003067       108.323       172.586         7.449         0.878         4.524
  WS02004412WS02004413       108.898       173.519         7.505         0.885         4.558
  WS02004410WS02004411       109.649       174.707         7.571         0.893         4.600
  WS02004409WS02004410       109.904       175.114         7.594         0.896         4.614
  WS02004407WS02004409       110.004       175.267         7.605         0.898         4.621
  WS02004406WS02004407       109.940       175.157         7.601         0.897         4.618
  WS02004405WS02004406       111.043       176.920         7.702         0.910         4.682
  WS02004404WS02004405       111.645       177.865         7.759         0.917         4.717
  WS02004403WS02004404       111.088       176.972         7.703         0.910         4.682
  WS02004402WS02004403       111.926       178.311         7.779         0.919         4.729
  WS02004139WS02001211      1274.878      2039.354       121.903        15.225        76.149
  WS02004138WS02004139      1282.281      2051.194       122.608        15.313        76.589
  WS02003067WS02003066       108.115       172.265         7.433         0.876         4.514
  WS02001213WS02003059      1303.819      2085.674       124.695        15.574        77.895
  WS02001212WS02001213      1310.854      2096.924       125.366        15.658        78.314
  WS02001211WS02001212      1316.568      2106.064       125.912        15.726        78.655
  WS02003072WS02003073      1506.792      2409.726       141.247        17.591        88.109
  WS02003069WS02003072      1513.023      2419.700       141.837        17.664        88.477
  WS02003060WS02003069      1516.512      2425.278       142.169        17.706        88.684
  WS02003059WS02003060      1298.610      2077.350       124.188        15.511        77.578
  HS02004901HS02004770         0.707         1.144         0.015         0.001         0.007
  HS02004876HS02004881         3.960         6.537         0.184         0.019         0.105
  HS02004870HS02004876         3.313         5.454         0.178         0.019         0.104
  HS02004842HS02004848         0.456         0.728         0.011         0.001         0.005
  HS02004837HS02004842         5.105         8.167         0.471         0.058         0.293
  HS02004830HS02004837        44.550        71.373         4.150         0.517         2.588
  HS02004824HS02004830        45.303        72.577         4.222         0.526         2.633
  HS02004817HS02004824        47.277        75.815         4.292         0.532         2.672
  HS02004770HS02004777         3.020         4.971         0.075         0.005         0.033
  HS02004799HS02004480        23.113        37.191         1.571         0.185         0.947
  HS02004792HS02004799        22.653        36.349         1.609         0.191         0.974
  HS02004788HS02004792        17.174        27.649         1.352         0.163         0.827
  HS02004785HS02004788         4.543         7.419         0.230         0.024         0.131
  HS02004777HS02004785         4.053         6.633         0.184         0.019         0.102
  HS02004480HS02004478        24.781        40.006         1.558         0.181         0.933
  HS02004479HS02004480         5.996         9.725         0.400         0.048         0.244
  HS02004862HS02004870         2.679         4.350         0.164         0.019         0.097
  HS02004848HS02004852         0.392         0.626         0.010         0.001         0.004
  HS02004856HS02004862         0.860         1.435         0.020         0.001         0.009
  HS02004852HS02004856         0.385         0.614         0.010         0.001         0.004
  HS02004802HS02004478        45.746        73.507         4.037         0.498         2.508
  HS02004478WS02006287        70.385       113.285         5.582         0.677         3.433
  HS02004817HS02004807        45.896        73.608         4.160         0.515         2.589
  HS02004807HS02004802        46.364        74.494         4.096         0.506         2.545
  YS02001759YS02001757        25.470        38.814         0.834         0.073         0.451
  YS02001762YS02001759        14.602        22.579         0.598         0.058         0.337
  YS02001765YS02001762        14.955        23.164         0.649         0.064         0.370
  YS02001770YS02001767        12.818        19.647         0.366         0.027         0.189
  YS02001774YS02001770         3.175         4.853         0.108         0.009         0.058
  YS02001779YS02001774         3.043         4.747         0.175         0.019         0.104
  YS02001649YS02001757        34.326        50.896         1.084         0.095         0.567
  YS02001767YS02001765        15.389        23.869         0.686         0.069         0.392
  YS02006561YS02001783        73.817       113.569         3.518         0.373         2.045
  YS02001783YS02001784        73.759       113.483         3.515         0.373         2.043
  YS02001784YS02001785        81.146       125.311         4.228         0.462         2.489
  YS02001788YS02001790        81.855       126.460         4.301         0.471         2.535
  YS02001790YS02001791        82.861       128.077         4.400         0.484         2.596
  YS02001791YS02001793        82.803       127.988         4.395         0.483         2.594
  YS02001910YS02001907        34.855        54.266         2.373         0.273         1.435
  YS02001786YS02001788        81.405       125.735         4.256         0.466         2.506
  YS02001915YS02001910        34.819        54.150         2.348         0.270         1.418
  YS02001918YS02001915        25.501        39.890         2.106         0.257         1.301
  YS02001923YS02001920         5.456         7.802         0.175         0.015         0.094
  YS02001926YS02001923         5.070         7.178         0.136         0.010         0.070
  YS02001929YS02001926         4.751         6.660         0.104         0.006         0.050
  YS02001920YS02001918        25.409        39.731         2.092         0.255         1.293
  YS02001629YS02163301         5.049         7.468         0.134         0.008         0.062
  YS02001619YS02001622         7.106        10.418         0.183         0.011         0.083
  YS02001622YS02001625         6.553         9.637         0.168         0.010         0.076
  YS02001625YS02001629         5.781         8.541         0.150         0.009         0.069
  YS02163301YS02001633         4.831         7.141         0.132         0.009         0.063
  YS02163601YS02164001        15.977        23.549         0.496         0.043         0.260
  YS02164001YS02001641        15.417        22.694         0.467         0.039         0.243
  YS02001641YS02001644        15.295        22.482         0.452         0.038         0.234
  YS02001647YS02001649        24.033        35.125         0.632         0.049         0.318
  YS02006553YS02006556        56.602        87.308         2.954         0.324         1.743
  YS02006556YS02006558        56.665        87.380         2.954         0.324         1.743
  YSB6556YSB1171               2.461         4.014         0.128         0.015         0.076
  YS02001907YS02006553        56.357        86.902         2.920         0.320         1.721
  YS02006558YS02006561        73.827       113.581         3.518         0.373         2.045
  YS02001633YS02163601        16.408        24.108         0.482         0.040         0.249
  YS02001644YS02001647        24.767        36.166         0.650         0.051         0.327
  YS02001745YS02001748         9.992        14.921         0.241         0.013         0.115
  YS02001748YS02001751        17.356        26.693         0.928         0.098         0.543
  YS02001751YS02001754        13.570        20.843         0.670         0.069         0.388
  YS02001754YS02001757        15.622        24.063         0.824         0.088         0.482
  YS02001882YS02001884         0.191         0.281         0.010         0.001         0.006
  YS02001884YS02001887         0.737         1.104         0.034         0.004         0.020
  YS02001890YS02001895        23.015        34.872         0.631         0.056         0.337
  YS02001895YS02001898        22.922        34.737         0.627         0.055         0.334
  YS02001898YS02001901        22.822        34.597         0.623         0.055         0.332
  YS02001901YS02001904        22.889        34.735         0.640         0.057         0.343
  YS02001904YS02001907        23.604        35.927         0.725         0.068         0.396
  YS02001887YS02001890        23.814        36.107         0.696         0.064         0.376
  YS02001652YS02001649        13.195        20.010         0.544         0.053         0.297
  YS02001655YS02001652        13.079        19.925         0.591         0.060         0.329
  YS02001658YS02001655        15.246        23.157         0.711         0.073         0.397
  YS02001661YS02001658        10.179        15.089         0.253         0.016         0.112
  YS02001664YS02001661        10.187        15.092         0.253         0.016         0.113
  YSB1154YSB6556               1.975         3.238         0.067         0.007         0.038
  YSB1174YSB1171               1.667         2.734         0.086         0.010         0.051
  YSB1171HS02004479            5.900         9.579         0.389         0.046         0.237
  HS02004881HS02006253         4.354         7.208         0.191         0.019         0.109
  YS02001793JiankangQianchi        83.171       128.586         4.439         0.489         2.621
  YS02001757CaochengTiaoxuchi        66.896       100.847         2.227         0.198         1.195
  WSF200WS02003060           108.451       172.805         7.463         0.880         4.532
  1                         1511.129      2416.696       141.655        17.642        88.364
  CC-Pump-1                    0.000         0.000         0.000         0.000         0.000
  CC-Pump-2                    0.000         0.000         0.000         0.000         0.000
  JK-Pump-1                   37.702        58.732         2.077         0.231         1.232
  JK-Pump-2                   11.518        17.704         0.530         0.056         0.307
  XR-Pump-1                  327.788       524.343        31.340         3.914        19.577
  XR-Pump-2                  327.788       524.343        31.340         3.914        19.577
  XR-Pump-3                  314.681       503.379        30.091         3.758        18.797
  XR-Pump-4                  314.681       503.379        30.091         3.758        18.797
  

  Analysis begun on:  Tue Jun 15 20:30:57 2021
  Analysis ended on:  Tue Jun 15 20:30:58 2021
  Total elapsed time: 00:00:01