
  EPA STORM WATER MANAGEMENT MODEL - VERSION 5.1 (Build 5.3.0.dev0)
  --------------------------------------------------------------

  WARNING 04: minimum elevation drop used for Conduit WS02004404WS02004405
  WARNING 03: negative offset ignored for Link YS02001904YS02001907
  
  *********************************************************
  NOTE: The summary statistics displayed in this report are
  based on results found at every computational time step,  
  not just on results from each reporting time step.
  *********************************************************
  
  ****************
  Analysis Options
  ****************
  Flow Units ............... LPS
  Process Models:
    Rainfall/Runoff ........ YES
    RDII ................... NO
    Snowmelt ............... NO
    Groundwater ............ NO
    Flow Routing ........... YES
    Ponding Allowed ........ NO
    Water Quality .......... YES
  Infiltration Method ...... HORTON
  Flow Routing Method ...... DYNWAVE
  Surcharge Method ......... EXTRAN
  Starting Date ............ 08/28/2015 08:00:00
  Ending Date .............. 08/28/2015 15:50:00
  Antecedent Dry Days ...... 8.0
  Report Time Step ......... 00:01:00
  Wet Time Step ............ 00:01:00
  Dry Time Step ............ 00:01:00
  Routing Time Step ........ 5.00 sec
  Variable Time Step ....... YES
  Maximum Trials ........... 8
  Number of Threads ........ 4
  Head Tolerance ........... 0.001500 m
  
  
  **************************        Volume         Depth
  Runoff Quantity Continuity     hectare-m            mm
  **************************     ---------       -------
  Total Precipitation ......         1.814         3.973
  Evaporation Loss .........         0.000         0.000
  Infiltration Loss ........         0.436         0.954
  Surface Runoff ...........         0.971         2.125
  Final Storage ............         0.409         0.894
  Continuity Error (%) .....        -0.022
  
  
  **************************           COD            SS            TN            TP         NH4-N
  Runoff Quality Continuity             kg            kg            kg            kg            kg
  **************************    ----------    ----------    ----------    ----------    ----------
  Initial Buildup ..........     41378.656     70582.865      1804.177       168.684      1032.807
  Surface Buildup ..........        10.668        11.658         2.479         0.231         1.471
  Wet Deposition ...........         0.000         0.000         0.000         0.000         0.000
  Sweeping Removal .........         0.000         0.000         0.000         0.000         0.000
  Infiltration Loss ........        15.642        25.722         0.329         0.021         0.153
  BMP Removal ..............         0.000         0.000         0.000         0.000         0.000
  Surface Runoff ...........       445.338       713.986         9.462         0.595         4.439
  Remaining Buildup ........     40928.221     69854.620      1796.861       168.298      1029.685
  Continuity Error (%) .....         0.000         0.000         0.000         0.000         0.000
  
  
  **************************        Volume        Volume
  Flow Routing Continuity        hectare-m      10^6 ltr
  **************************     ---------     ---------
  Dry Weather Inflow .......         0.616         6.165
  Wet Weather Inflow .......         0.970         9.702
  Groundwater Inflow .......         0.000         0.000
  RDII Inflow ..............         0.000         0.000
  External Inflow ..........         0.102         1.024
  External Outflow .........         1.256        12.565
  Flooding Loss ............         0.102         1.019
  Evaporation Loss .........         0.000         0.000
  Exfiltration Loss ........         0.000         0.000
  Initial Stored Volume ....         0.076         0.761
  Final Stored Volume ......         0.497         4.967
  Continuity Error (%) .....        -5.100
  
  
  **************************           COD            SS            TN            TP         NH4-N
  Quality Routing Continuity            kg            kg            kg            kg            kg
  **************************    ----------    ----------    ----------    ----------    ----------
  Dry Weather Inflow .......      1541.201      2465.922       147.955        18.494        92.472
  Wet Weather Inflow .......       445.155       713.712         9.458         0.594         4.437
  Groundwater Inflow .......         0.000         0.000         0.000         0.000         0.000
  RDII Inflow ..............         0.000         0.000         0.000         0.000         0.000
  External Inflow ..........       183.418       293.469        17.608         2.201        11.005
  External Outflow .........      1615.791      2592.629       141.148        17.400        87.586
  Flooding Loss ............        41.686        67.232         1.399         0.132         0.771
  Exfiltration Loss ........         0.000         0.000         0.000         0.000         0.000
  Mass Reacted .............         0.000         0.000         0.000         0.000         0.000
  Initial Stored Mass ......         0.000         0.000         0.000         0.000         0.000
  Final Stored Mass ........       371.400       587.596        22.749         2.607        13.635
  Continuity Error (%) .....         6.494         6.497         5.556         5.403         5.487
  
  
  *************************
  Highest Continuity Errors
  *************************
  Node YS02001774 (38.81%)
  Node HS02004842 (29.38%)
  Node YS02001884 (27.46%)
  Node JK-storage (-24.58%)
  Node YSB1171 (8.09%)
  
  
  ***************************
  Time-Step Critical Elements
  ***************************
  Link WS02006252WS02006251 (46.37%)
  Link WS02006280WS02006229 (17.87%)
  Link YS02001793JiankangQianchi (14.18%)
  Link WS02006238WS02006235 (9.30%)
  Link YS02001791YS02001793 (2.65%)
  
  
  ********************************
  Highest Flow Instability Indexes
  ********************************
  Link WS02006113WS02006111 (51)
  Link WS02006111WS02006112 (16)
  Link YS02164001YS02001641 (8)
  Link YS02001641YS02001644 (8)
  Link YS02163601YS02164001 (7)
  
  
  *************************
  Routing Time Step Summary
  *************************
  Minimum Time Step           :     0.24 sec
  Average Time Step           :     1.91 sec
  Maximum Time Step           :     5.00 sec
  Percent in Steady State     :    -0.00
  Average Iterations per Step :     2.34
  Percent Not Converging      :     1.83
  
  
  ***************************
  Subcatchment Runoff Summary
  ***************************
  
  ------------------------------------------------------------------------------------------------------------------------------
                            Total      Total      Total      Total     Imperv       Perv      Total       Total     Peak  Runoff
                           Precip      Runon       Evap      Infil     Runoff     Runoff     Runoff      Runoff   Runoff   Coeff
  Subcatchment                 mm         mm         mm         mm         mm         mm         mm    10^6 ltr      LPS
  ------------------------------------------------------------------------------------------------------------------------------
  sub0                       3.97       0.00       0.00       0.28       3.65       0.00       3.65        0.00     0.67   0.919
  sub1                       3.97       0.00       0.00       0.44       3.45       0.00       3.45        0.02     3.71   0.868
  sub2                       3.97       0.00       0.00       1.47       2.42       0.00       2.42        0.02     3.31   0.610
  sub3                       3.97       0.00       0.00       1.47       2.39       0.00       2.39        0.05     6.93   0.602
  sub4                       3.97       0.00       0.00       0.44       3.32       0.00       3.32        0.07     8.19   0.835
  sub5                       3.97       0.00       0.00       0.28       3.60       0.00       3.60        0.04     6.59   0.907
  sub7                       3.97       0.00       0.00       0.36       3.55       0.00       3.55        0.01     2.29   0.895
  sub8                       3.97       0.00       0.00       0.36       3.55       0.00       3.55        0.02     4.06   0.892
  sub9                       3.97       0.00       0.00       0.36       3.54       0.00       3.54        0.02     3.01   0.892
  sub10                      3.97       0.00       0.00       0.32       3.57       0.00       3.57        0.04     6.56   0.899
  sub11                      3.97       0.00       0.00       0.32       3.59       0.00       3.59        0.04     7.62   0.903
  sub12                      3.97       0.00       0.00       0.52       3.41       0.00       3.41        0.03     6.32   0.858
  sub14                      3.97       0.00       0.00       0.36       3.54       0.00       3.54        0.03     5.90   0.891
  sub15                      3.97       0.00       0.00       1.19       2.72       0.00       2.72        0.05     8.02   0.685
  sub16                      3.97       0.00       0.00       1.31       2.62       0.00       2.62        0.03     5.59   0.660
  sub17                      3.97       0.00       0.00       1.27       2.66       0.00       2.66        0.02     4.54   0.669
  sub22                      3.97       0.00       0.00       1.71       2.22       0.00       2.22        0.14    26.04   0.560
  sub23                      3.97       0.00       0.00       1.47       2.46       0.00       2.46        0.12    22.12   0.619
  sub60                      3.97       0.00       0.00       0.48       2.32       0.00       2.32        0.70    58.36   0.585
  sub61                      3.97       0.00       0.00       0.68       2.51       0.00       2.51        0.77    71.76   0.631
  sub62                      3.97       0.00       0.00       0.32       2.68       0.00       2.68        0.82    74.03   0.675
  sub63                      3.97       0.00       0.00       1.15       2.24       0.00       2.24        0.68    65.77   0.564
  sub64                      3.97       0.00       0.00       0.60       2.22       0.00       2.22        0.68    55.45   0.559
  sub65                      3.97       0.00       0.00       0.52       2.25       0.00       2.25        0.69    56.28   0.566
  sub66                      3.97       0.00       0.00       1.15       1.94       0.00       1.94        0.60    50.71   0.489
  sub67                      3.97       0.00       0.00       0.32       2.97       0.00       2.97        0.92    91.17   0.748
  sub68                      3.97       0.00       0.00       0.56       2.67       0.00       2.67        0.82    78.48   0.673
  sub69                      3.97       0.00       0.00       0.60       2.91       0.00       2.91        0.68    72.21   0.731
  sub70                      3.97       2.97       0.00       2.36       3.51       0.00       3.51        0.80    64.50   0.506
  sub71                      3.97       0.00       0.00       0.32       2.56       0.00       2.56        0.60    52.05   0.644
  sub72                      3.97       0.00       0.00       0.28       1.77       0.00       1.77        0.36    24.82   0.446
  1                          3.97       3.42       0.00       1.37       3.54       0.35       3.88        0.91    61.18   0.526
  2                          3.97       0.00       0.00       2.89       0.88       0.09       0.96        0.39    42.63   0.243
  
  
  ****************************
  Subcatchment Washoff Summary
  ****************************
  
  ------------------------------------------------------------------------------------------
                                 COD            SS            TN            TP         NH4-N
  Subcatchment                    kg            kg            kg            kg            kg
  ------------------------------------------------------------------------------------------
  sub0                         0.412         0.711         0.007         0.001         0.003
  sub1                         1.723         3.014         0.034         0.002         0.016
  sub2                         1.002         1.692         0.024         0.002         0.011
  sub3                         2.419         4.030         0.057         0.004         0.026
  sub4                         3.917         6.827         0.085         0.005         0.041
  sub5                         3.889         6.706         0.069         0.005         0.033
  sub7                         0.925         1.654         0.018         0.001         0.009
  sub8                         1.431         2.610         0.031         0.002         0.015
  sub9                         1.193         2.146         0.025         0.001         0.012
  sub10                        3.278         5.737         0.062         0.004         0.030
  sub11                        3.297         5.861         0.064         0.004         0.031
  sub12                        2.715         4.747         0.050         0.004         0.024
  sub14                        2.505         4.459         0.050         0.003         0.024
  sub15                        2.872         4.864         0.060         0.004         0.027
  sub16                        1.825         3.096         0.037         0.003         0.017
  sub17                        1.649         2.766         0.032         0.002         0.015
  sub22                        8.379        13.877         0.173         0.012         0.078
  sub23                        5.385         9.297         0.130         0.008         0.058
  sub60                       29.231        46.684         0.654         0.036         0.312
  sub61                       36.934        58.663         0.745         0.047         0.357
  sub62                       39.405        63.838         0.852         0.049         0.407
  sub63                       27.902        43.853         0.640         0.042         0.289
  sub64                       33.792        51.897         0.673         0.046         0.317
  sub65                       34.703        53.542         0.698         0.046         0.330
  sub66                       20.991        32.684         0.499         0.030         0.228
  sub67                       58.194        93.284         1.088         0.075         0.522
  sub68                       41.898        67.395         0.881         0.055         0.416
  sub69                       39.248        63.964         0.794         0.052         0.375
  sub70                       57.659        94.363         1.283         0.083         0.586
  sub71                       26.321        43.015         0.613         0.032         0.292
  sub72                       16.024        24.173         0.329         0.021         0.157
  1                           26.636        43.898         0.622         0.040         0.278
  2                            4.490         6.967         0.161         0.009         0.066
  ------------------------------------------------------------------------------------------
  System                     542.245       872.313        11.539         0.729         5.400
  
  
  ******************
  Node Depth Summary
  ******************
  
  ---------------------------------------------------------------------------------
                                 Average  Maximum  Maximum  Time of Max    Reported
                                   Depth    Depth      HGL   Occurrence   Max Depth
  Node                 Type       Meters   Meters   Meters  days hr:min      Meters
  ---------------------------------------------------------------------------------
  WS02001211           JUNCTION     0.69     0.79     5.63     0  06:12        0.79
  WS02001212           JUNCTION     0.41     0.50     5.57     0  06:12        0.50
  WS02001213           JUNCTION     0.63     0.75     5.51     0  06:11        0.75
  WS02003069           JUNCTION     0.42     0.57     5.16     0  06:10        0.57
  WS02003072           JUNCTION     0.49     0.63     5.00     0  06:11        0.63
  WS02003073           JUNCTION     0.29     0.39     4.45     0  06:11        0.39
  WS02003060           JUNCTION     0.38     0.51     5.44     0  06:09        0.51
  WS02003066           JUNCTION     0.20     0.29     5.85     0  06:08        0.29
  WS02003059           JUNCTION     0.69     0.80     5.49     0  06:10        0.80
  WS02003067           JUNCTION     0.52     0.69     6.01     0  06:08        0.69
  WS02004401           JUNCTION     0.60     0.84     6.84     0  06:04        0.84
  WS02004402           JUNCTION     0.63     0.86     6.82     0  06:05        0.86
  WS02004403           JUNCTION     0.66     0.88     6.81     0  06:05        0.88
  WS02004404           JUNCTION     0.73     0.95     6.80     0  06:05        0.95
  WS02004406           JUNCTION     0.74     0.95     6.78     0  06:05        0.95
  WS02004409           JUNCTION     0.41     0.65     6.42     0  06:07        0.65
  WS02004410           JUNCTION     0.43     0.67     6.39     0  06:07        0.67
  WS02004411           JUNCTION     0.45     0.68     6.36     0  06:08        0.68
  WS02004412           JUNCTION     0.47     0.68     6.32     0  06:08        0.68
  WS02004413           JUNCTION     0.64     0.84     6.31     0  06:08        0.84
  WS02004405           JUNCTION     0.73     0.94     6.79     0  06:05        0.94
  WS02006109           JUNCTION     0.66     0.97     7.59     0  06:01        0.96
  WS02006110           JUNCTION     0.67     0.92     7.51     0  06:00        0.92
  WS02006111           JUNCTION     0.19     0.29     6.99     0  06:02        0.28
  WS02006112           JUNCTION     0.76     1.03     6.92     0  06:02        1.03
  WS02006113           JUNCTION     0.28     0.45     7.34     0  06:01        0.45
  WS02006115           JUNCTION     0.48     0.74     6.87     0  06:04        0.73
  WS02006116           JUNCTION     0.57     0.82     6.86     0  06:04        0.81
  WS02006230           JUNCTION     0.61     1.09     7.83     0  06:00        1.08
  WS02006231           JUNCTION     0.39     0.83     7.96     0  06:01        0.82
  WS02006232           JUNCTION     0.52     1.03     8.07     0  06:01        1.00
  WS02006234           JUNCTION     0.43     1.04     8.20     0  06:01        1.01
  WS02006235           JUNCTION     0.46     1.13     8.29     0  06:01        1.08
  WS02006238           JUNCTION     0.49     1.16     8.30     0  06:01        1.11
  WS02006240           JUNCTION     0.39     1.12     8.41     0  06:01        1.08
  WS02006242           JUNCTION     0.44     1.21     8.48     0  06:01        1.18
  WS02006243           JUNCTION     0.33     1.12     8.54     0  06:01        1.10
  WS02006245           JUNCTION     0.31     1.11     8.59     0  06:01        1.09
  WS02006247           JUNCTION     0.32     1.13     8.63     0  06:01        1.11
  WS02006248           JUNCTION     0.27     1.08     8.66     0  06:01        1.07
  WS02006249           JUNCTION     0.30     1.09     8.69     0  05:59        1.09
  WS02006239           JUNCTION     0.44     1.15     8.36     0  06:01        1.10
  WS02006251           JUNCTION     0.28     1.19     8.86     0  05:59        1.19
  WS02006252           JUNCTION     0.21     0.75     8.99     0  05:59        0.75
  WS02006253           JUNCTION     0.31     1.23     8.88     0  05:59        1.22
  WS02006256           JUNCTION     1.18     2.35     9.28     0  00:00        2.35
  WS02004138           JUNCTION     0.16     0.20     7.45     0  00:00        0.19
  WS02004139           JUNCTION     0.64     0.74     5.65     0  06:13        0.74
  WS02004407           JUNCTION     0.19     0.29     6.60     0  06:05        0.29
  WS02006228           JUNCTION     0.65     1.06     7.71     0  05:49        1.00
  WS02006229           JUNCTION     0.62     1.00     7.70     0  06:01        1.00
  WS02006280           JUNCTION     0.05     0.11     8.38     0  01:48        0.11
  WS02006284           JUNCTION     0.34     0.43     8.82     0  01:48        0.43
  WS02006287           JUNCTION     0.07     0.15     9.11     0  01:47        0.15
  WSF200               JUNCTION     0.18     0.29     5.53     0  06:08        0.29
  HS02004901           JUNCTION     0.10     0.18    10.00     0  01:46        0.18
  HS02004881           JUNCTION     0.00     0.02     9.04     0  01:47        0.02
  HS02004876           JUNCTION     0.03     0.08     9.11     0  01:47        0.08
  HS02004870           JUNCTION     0.01     0.03     9.31     0  01:47        0.03
  HS02004862           JUNCTION     0.01     0.03     9.41     0  01:50        0.03
  HS02004856           JUNCTION     0.07     0.09     9.52     0  01:48        0.09
  HS02004852           JUNCTION     0.00     0.02     9.53     0  01:50        0.02
  HS02004848           JUNCTION     0.00     0.02     9.62     0  01:48        0.02
  HS02004842           JUNCTION     0.32     0.35     9.62     0  01:48        0.35
  HS02004837           JUNCTION     0.02     0.04     9.62     0  01:48        0.04
  HS02004830           JUNCTION     0.03     0.05     9.52     0  01:48        0.05
  HS02004824           JUNCTION     0.02     0.03     9.43     0  01:54        0.03
  HS02004817           JUNCTION     0.41     0.48     9.33     0  01:48        0.48
  HS02004807           JUNCTION     0.10     0.16     9.33     0  01:48        0.16
  HS02004802           JUNCTION     0.14     0.20     9.32     0  01:48        0.20
  HS02004799           JUNCTION     0.09     0.19     9.40     0  01:45        0.19
  HS02004792           JUNCTION     0.02     0.06     9.59     0  01:44        0.06
  HS02004788           JUNCTION     0.02     0.05     9.95     0  01:46        0.05
  HS02004785           JUNCTION     0.03     0.09     9.99     0  01:46        0.09
  HS02004777           JUNCTION     0.12     0.20    10.00     0  01:46        0.20
  HS02004770           JUNCTION     0.09     0.17    10.00     0  01:45        0.17
  HS02004480           JUNCTION     0.05     0.14     9.38     0  01:46        0.14
  HS02004479           JUNCTION     0.09     0.18     9.38     0  01:46        0.18
  HS02004478           JUNCTION     0.04     0.09     9.32     0  01:47        0.09
  YS02001745           JUNCTION     0.29     0.50     8.02     0  04:57        0.50
  YS02001748           JUNCTION     0.63     0.94     8.01     0  04:58        0.94
  YS02001751           JUNCTION     0.80     1.14     8.01     0  07:50        1.14
  YS02001754           JUNCTION     1.05     1.42     8.03     0  07:50        1.42
  YS02001762           JUNCTION     1.24     1.63     8.03     0  07:50        1.63
  YS02001765           JUNCTION     1.19     1.58     8.03     0  07:50        1.58
  YS02001767           JUNCTION     1.16     1.54     8.03     0  07:50        1.54
  YS02001770           JUNCTION     1.15     1.53     8.03     0  07:50        1.53
  YS02001774           JUNCTION     1.22     1.60     8.03     0  07:50        1.60
  YS02001779           JUNCTION     0.98     1.34     8.03     0  07:50        1.34
  YS02001882           JUNCTION     0.24     0.38     7.10     0  03:04        0.38
  YS02001884           JUNCTION     0.33     0.48     7.10     0  03:04        0.48
  YS02001759           JUNCTION     1.27     1.67     8.03     0  07:50        1.67
  YS02001887           JUNCTION     0.41     0.56     7.10     0  03:04        0.56
  YS02001890           JUNCTION     0.44     0.59     7.10     0  03:04        0.59
  YS02001898           JUNCTION     0.21     0.35     7.08     0  03:05        0.35
  YS02001901           JUNCTION     0.33     0.47     7.08     0  03:05        0.47
  YS02001904           JUNCTION     0.31     0.45     7.08     0  03:05        0.45
  YS02001907           JUNCTION     0.63     0.79     7.08     0  03:05        0.79
  YS02001910           JUNCTION     0.42     0.58     7.08     0  03:05        0.58
  YS02001915           JUNCTION     0.23     0.36     7.08     0  03:05        0.36
  YS02001918           JUNCTION     0.07     0.09     7.15     0  03:05        0.09
  YS02001619           JUNCTION     0.77     1.09     8.02     0  07:50        1.09
  YS02001629           JUNCTION     1.10     1.47     8.02     0  07:50        1.47
  YS02001641           JUNCTION     1.21     1.60     8.04     0  07:50        1.60
  YS02001644           JUNCTION     1.21     1.60     8.04     0  07:50        1.60
  YS02001652           JUNCTION     1.06     1.43     8.02     0  07:50        1.43
  YS02001655           JUNCTION     0.83     1.17     8.02     0  07:50        1.17
  YS02001920           JUNCTION     0.16     0.19     7.20     0  03:04        0.19
  YS02001923           JUNCTION     0.05     0.07     7.33     0  03:03        0.07
  YS02001926           JUNCTION     0.12     0.16     7.60     0  03:03        0.16
  YS02001929           JUNCTION     0.06     0.08     7.77     0  03:01        0.08
  YS02001658           JUNCTION     0.58     0.87     8.01     0  07:50        0.87
  YS02001661           JUNCTION     0.39     0.61     8.01     0  04:59        0.61
  YS02001664           JUNCTION     0.06     0.10     8.02     0  03:01        0.10
  YS02001622           JUNCTION     0.79     1.12     8.02     0  07:50        1.12
  YS02001633           JUNCTION     1.19     1.59     8.04     0  07:50        1.59
  YS02001649           JUNCTION     1.25     1.64     8.03     0  07:50        1.64
  YS02001757           JUNCTION     1.37     1.77     8.03     0  07:50        1.77
  YS02001895           JUNCTION     0.21     0.35     7.09     0  03:05        0.35
  YS02001625           JUNCTION     1.06     1.42     8.03     0  07:50        1.42
  YS02163301           JUNCTION     1.13     1.52     8.04     0  07:50        1.52
  YS02163601           JUNCTION     1.24     1.64     8.04     0  07:50        1.64
  YS02164001           JUNCTION     1.19     1.58     8.04     0  07:50        1.58
  YS02001647           JUNCTION     1.04     1.42     8.03     0  07:50        1.42
  YSB1154              JUNCTION     0.22     0.32     9.38     0  01:46        0.32
  YSB6556              JUNCTION     0.12     0.21     9.38     0  01:46        0.21
  YSB1174              JUNCTION     0.18     0.27     9.38     0  01:45        0.27
  YSB1171              JUNCTION     0.38     0.48     9.38     0  01:46        0.48
  YS02006553           JUNCTION     0.64     0.80     7.08     0  03:05        0.80
  YS02006561           JUNCTION     0.12     0.19     6.85     0  03:05        0.19
  YS02006556           JUNCTION     0.61     0.77     7.08     0  03:05        0.77
  YS02006558           JUNCTION     0.65     0.81     7.08     0  03:05        0.81
  YS02001783           JUNCTION     0.20     0.34     6.48     0  03:05        0.34
  YS02001784           JUNCTION     0.23     0.37     6.44     0  03:06        0.37
  YS02001786           JUNCTION     0.20     0.31     6.34     0  03:06        0.31
  YS02001788           JUNCTION     0.14     0.23     6.21     0  03:06        0.23
  YS02001790           JUNCTION     0.17     0.28     5.93     0  03:06        0.28
  YS02001791           JUNCTION     0.11     0.19     5.66     0  03:04        0.19
  YS02001793           JUNCTION     0.08     0.84     5.67     0  02:56        0.76
  WSC                  OUTFALL      0.29     0.39     1.06     0  06:12        0.39
  JK-storage           STORAGE      1.47     4.78     5.58     0  02:57        4.76
  CC-storage           STORAGE      0.68     1.01     8.01     0  07:50        1.01
  XR-storage           STORAGE      2.21     5.35     3.35     0  07:26        5.35
  
  
  *******************
  Node Inflow Summary
  *******************
  
  -------------------------------------------------------------------------------------------------
                                  Maximum  Maximum                  Lateral       Total        Flow
                                  Lateral    Total  Time of Max      Inflow      Inflow     Balance
                                   Inflow   Inflow   Occurrence      Volume      Volume       Error
  Node                 Type           LPS      LPS  days hr:min    10^6 ltr    10^6 ltr     Percent
  -------------------------------------------------------------------------------------------------
  WS02001211           JUNCTION      7.35   388.84     0  06:18       0.207        7.46       0.526
  WS02001212           JUNCTION      0.00   390.05     0  06:17           0        7.42       0.394
  WS02001213           JUNCTION      0.00   391.19     0  06:30           0        7.39       0.282
  WS02003069           JUNCTION      0.32   911.70     0  06:10     0.00902        12.6       0.182
  WS02003072           JUNCTION      0.00   911.56     0  06:10           0        12.6       0.240
  WS02003073           JUNCTION      1.82   913.42     0  06:11      0.0514        12.6       0.262
  WS02003060           JUNCTION     16.53   911.45     0  06:09       0.466        12.6       0.178
  WS02003066           JUNCTION      0.00   513.16     0  06:08           0        4.81       0.030
  WS02003059           JUNCTION      0.00   393.35     0  06:30           0        7.38       0.496
  WS02003067           JUNCTION      0.00   513.13     0  06:08           0        4.82       0.090
  WS02004401           JUNCTION      0.00   522.56     0  06:04           0        4.92       0.217
  WS02004402           JUNCTION      0.00   521.35     0  06:05           0        4.91       0.219
  WS02004403           JUNCTION      0.00   520.46     0  06:05           0         4.9       0.213
  WS02004404           JUNCTION      0.16   520.68     0  06:05     0.00457         4.9       0.176
  WS02004406           JUNCTION      0.00   520.26     0  06:05           0        4.87       0.438
  WS02004409           JUNCTION      0.00   519.75     0  06:05           0        4.85       0.063
  WS02004410           JUNCTION      0.00   516.96     0  06:06           0        4.85       0.099
  WS02004411           JUNCTION      0.00   515.16     0  06:06           0        4.84       0.124
  WS02004412           JUNCTION      0.00   513.94     0  06:07           0        4.84       0.164
  WS02004413           JUNCTION      0.00   513.36     0  06:08           0        4.83       0.288
  WS02004405           JUNCTION      0.04   520.40     0  06:05     0.00107        4.89       0.263
  WS02006109           JUNCTION      1.23   531.78     0  06:01      0.0347        4.95       0.150
  WS02006110           JUNCTION      0.00   531.53     0  06:01           0        4.94       0.155
  WS02006111           JUNCTION      0.00   552.91     0  06:01           0        4.93       0.016
  WS02006112           JUNCTION      4.54   535.38     0  06:02      0.0228        4.95       0.375
  WS02006113           JUNCTION      0.00   533.52     0  06:01           0        4.93       0.042
  WS02006115           JUNCTION      0.00   539.67     0  06:02           0        4.94       0.148
  WS02006116           JUNCTION      0.00   526.97     0  06:02           0        4.93       0.120
  WS02006230           JUNCTION     10.28   521.52     0  06:00        0.29        4.12       0.143
  WS02006231           JUNCTION      0.00   510.84     0  06:00           0        3.83      -0.019
  WS02006232           JUNCTION      0.00   510.69     0  06:00           0        3.84       0.132
  WS02006234           JUNCTION      0.00   510.28     0  06:00           0        3.83      -0.076
  WS02006235           JUNCTION      0.00   510.70     0  06:00           0        3.97       0.100
  WS02006238           JUNCTION      0.00   355.17     0  05:32           0        1.68      -0.016
  WS02006240           JUNCTION      0.00   360.32     0  05:32           0        1.56       0.052
  WS02006242           JUNCTION      0.00   364.56     0  05:31           0        1.51       0.051
  WS02006243           JUNCTION      0.00   369.10     0  05:31           0        1.47      -0.263
  WS02006245           JUNCTION      0.00   373.23     0  05:31           0        1.45       0.238
  WS02006247           JUNCTION      0.00   377.33     0  05:11           0        1.45       0.034
  WS02006248           JUNCTION      0.00   381.82     0  05:10           0        1.44      -0.062
  WS02006249           JUNCTION      0.00   417.91     0  06:00           0        1.45       0.108
  WS02006239           JUNCTION      0.00   356.53     0  05:32           0        1.62      -0.235
  WS02006251           JUNCTION      0.08   407.95     0  06:00     0.00217        1.47      -0.037
  WS02006252           JUNCTION      0.00   399.91     0  06:00           0        1.32       0.032
  WS02006253           JUNCTION      0.67    59.89     0  05:57     0.00295       0.147       0.125
  WS02006256           JUNCTION      0.00   983.00     0  03:10           0        3.41      -0.014
  WS02004138           JUNCTION      0.00   380.00     0  00:00           0         7.3       0.074
  WS02004139           JUNCTION      0.32   395.85     0  00:00     0.00905         7.3       0.616
  WS02004407           JUNCTION      0.00   519.98     0  06:05           0        4.85       0.028
  WS02006228           JUNCTION      0.00   530.60     0  06:01           0        4.92       0.136
  WS02006229           JUNCTION      0.00   530.18     0  06:01           0        4.93       0.157
  WS02006280           JUNCTION      0.00   109.40     0  01:48           0       0.813       0.009
  WS02006284           JUNCTION      0.10   109.40     0  01:47      0.0027       0.814       0.141
  WS02006287           JUNCTION      0.00   109.32     0  01:47           0       0.812       0.084
  WSF200               JUNCTION      0.00   513.18     0  06:08           0        4.81       0.019
  HS02004901           JUNCTION      5.59     5.59     0  01:35      0.0274      0.0276       6.799
  HS02004881           JUNCTION      2.29    19.48     0  01:47       0.012       0.123       0.058
  HS02004876           JUNCTION      3.71    17.37     0  01:47      0.0229       0.112       0.472
  HS02004870           JUNCTION      4.06    13.72     0  01:47      0.0226      0.0889       0.121
  HS02004862           JUNCTION      3.51     9.92     0  01:48      0.0282      0.0664       0.251
  HS02004856           JUNCTION      3.01     6.42     0  01:47       0.017      0.0396       3.766
  HS02004852           JUNCTION      0.00     3.58     0  01:48           0      0.0226       0.219
  HS02004848           JUNCTION      6.93     6.93     0  01:54      0.0538      0.0538       0.082
  HS02004842           JUNCTION      0.00     4.48     0  00:03           0      0.0443      41.595
  HS02004837           JUNCTION     12.91    16.01     0  01:47       0.218        0.25       0.327
  HS02004830           JUNCTION      0.15    16.15     0  01:48     0.00423        0.24       0.516
  HS02004824           JUNCTION      8.24    23.96     0  01:54      0.0706       0.309       0.175
  HS02004817           JUNCTION      0.60    24.56     0  01:54      0.0169       0.326       5.389
  HS02004807           JUNCTION      7.62    31.44     0  01:50      0.0417       0.351       1.231
  HS02004802           JUNCTION      0.00    31.54     0  01:52           0       0.347       1.167
  HS02004799           JUNCTION      5.90    66.40     0  01:44      0.0337       0.414       0.626
  HS02004792           JUNCTION     26.32    60.63     0  01:44       0.148       0.381       0.110
  HS02004788           JUNCTION      9.69    35.49     0  01:45      0.0939       0.234       0.168
  HS02004785           JUNCTION      0.15    26.05     0  01:44     0.00423       0.141       0.344
  HS02004777           JUNCTION      0.03    26.25     0  01:42    0.000846       0.142       3.793
  HS02004770           JUNCTION     22.12    27.03     0  01:38       0.117       0.143       2.212
  HS02004480           JUNCTION      0.00    78.44     0  01:45           0       0.481       0.218
  HS02004479           JUNCTION      0.00    12.05     0  01:49           0      0.0791       0.932
  HS02004478           JUNCTION      0.00   109.33     0  01:47           0       0.813       0.052
  YS02001745           JUNCTION     58.36    60.10     0  03:49       0.704       0.705       0.976
  YS02001748           JUNCTION      0.04    95.07     0  03:51     0.00127       0.699       3.105
  YS02001751           JUNCTION      0.01    88.30     0  03:50     0.00031       0.678       3.706
  YS02001754           JUNCTION      0.26    71.96     0  02:34     0.00733       0.661       4.029
  YS02001762           JUNCTION      0.00    74.55     0  02:55           0       0.747       3.118
  YS02001765           JUNCTION      0.00    80.17     0  02:56           0       0.751       3.528
  YS02001767           JUNCTION      0.54    82.76     0  03:08      0.0151       0.773       4.953
  YS02001770           JUNCTION     74.18    87.49     0  03:12       0.828       0.842       4.115
  YS02001774           JUNCTION      0.00    31.77     0  01:55           0       0.068      63.426
  YS02001779           JUNCTION      0.01    22.53     0  03:12    0.000141      0.0281     125.076
  YS02001882           JUNCTION      0.00     2.55     0  01:46           0     0.00421      60.460
  YS02001884           JUNCTION      0.00     7.12     0  01:31           0       0.017      37.863
  YS02001759           JUNCTION     71.80   144.49     0  03:01       0.774        1.48       1.670
  YS02001887           JUNCTION     91.62    91.62     0  03:01       0.929       0.937       0.746
  YS02001890           JUNCTION      0.00    89.08     0  03:02           0       0.916       0.839
  YS02001898           JUNCTION      0.00    87.85     0  03:03           0       0.904       0.208
  YS02001901           JUNCTION      0.00    87.59     0  03:03           0       0.904       0.599
  YS02001904           JUNCTION      0.00    87.50     0  03:05           0       0.901       0.549
  YS02001907           JUNCTION      0.00   165.45     0  03:06           0        1.93       1.138
  YS02001910           JUNCTION      0.00    78.21     0  03:04           0        1.04       0.963
  YS02001915           JUNCTION     52.07    78.66     0  03:01       0.604        1.04       0.412
  YS02001918           JUNCTION      0.00    27.57     0  03:04           0        0.44       0.232
  YS02001619           JUNCTION     50.71    50.71     0  03:01       0.595       0.595       2.147
  YS02001629           JUNCTION      0.00    62.57     0  03:11           0       0.513       6.133
  YS02001641           JUNCTION      0.00    99.73     0  03:06           0         1.1       2.085
  YS02001644           JUNCTION     55.49   156.44     0  03:05       0.676        1.74       1.574
  YS02001652           JUNCTION      0.00    74.05     0  02:57           0       0.621       4.085
  YS02001655           JUNCTION      0.15    90.66     0  03:03     0.00434       0.647       4.104
  YS02001920           JUNCTION      2.87    27.60     0  03:03      0.0809       0.441       0.436
  YS02001923           JUNCTION      0.04    24.73     0  03:03     0.00106       0.361       0.076
  YS02001926           JUNCTION      0.05    24.84     0  03:01     0.00147       0.362       0.546
  YS02001929           JUNCTION     24.82    24.82     0  03:01       0.361       0.361       0.073
  YS02001658           JUNCTION      0.00    69.91     0  03:58           0       0.664       3.326
  YS02001661           JUNCTION      0.00    65.72     0  03:01           0       0.677       2.033
  YS02001664           JUNCTION     65.77    65.77     0  03:01       0.678       0.678       0.088
  YS02001622           JUNCTION      0.00    62.45     0  03:10           0       0.583       5.851
  YS02001633           JUNCTION     56.48   102.06     0  03:07       0.696        1.16       2.939
  YS02001649           JUNCTION      0.00   216.20     0  03:07           0        2.27       1.751
  YS02001757           JUNCTION      0.00   383.41     0  03:04           0        4.29       2.221
  YS02001895           JUNCTION      0.00    88.27     0  03:02           0       0.908       0.402
  YS02001625           JUNCTION      0.00    58.57     0  03:11           0       0.551       7.672
  YS02163301           JUNCTION      0.00    52.80     0  03:04           0       0.489       5.435
  YS02163601           JUNCTION      0.11   105.52     0  03:04      0.0031        1.12       2.837
  YS02164001           JUNCTION      0.00   104.08     0  03:05           0         1.1       2.057
  YS02001647           JUNCTION      0.00   157.72     0  03:05           0        1.71       1.773
  YSB1154              JUNCTION      6.59     6.59     0  01:43      0.0408      0.0417       3.597
  YSB6556              JUNCTION      0.00     6.77     0  01:47           0      0.0424       3.023
  YSB1174              JUNCTION      6.32     6.32     0  01:34      0.0298      0.0303       4.423
  YSB1171              JUNCTION      0.00    12.49     0  01:44           0      0.0782       8.807
  YS02006553           JUNCTION      0.00   165.65     0  03:07           0        1.92       0.739
  YS02006561           JUNCTION      0.00   241.22     0  03:05           0        2.72       0.022
  YS02006556           JUNCTION      0.00   165.88     0  03:07           0        1.92       0.531
  YS02006558           JUNCTION     79.36   241.23     0  03:05       0.846        2.74       0.162
  YS02001783           JUNCTION      0.00   241.22     0  03:05           0        2.72       0.052
  YS02001784           JUNCTION      1.06   242.27     0  03:05      0.0299        2.74       0.086
  YS02001786           JUNCTION      0.06   242.32     0  03:06     0.00159        2.74       0.083
  YS02001788           JUNCTION      0.07   242.40     0  03:06       0.002        2.74       0.047
  YS02001790           JUNCTION      0.15   242.55     0  03:06     0.00437        2.75       0.061
  YS02001791           JUNCTION      0.00   242.54     0  03:06           0        2.74       0.030
  YS02001793           JUNCTION      0.00   345.45     0  02:54           0        2.75       0.013
  WSC                  OUTFALL       0.00   913.51     0  06:12           0        12.6       0.000
  JK-storage           STORAGE       0.00   760.42     0  03:03           0         2.9     -19.731
  CC-storage           STORAGE       0.00   383.64     0  03:05           0         4.2       1.344
  XR-storage           STORAGE     303.81   303.81     0  03:01        6.94        7.54      -2.578
  
  
  **********************
  Node Surcharge Summary
  **********************
  
  Surcharging occurs when water rises above the top of the highest conduit.
  ---------------------------------------------------------------------
                                               Max. Height   Min. Depth
                                   Hours       Above Crown    Below Rim
  Node                 Type      Surcharged         Meters       Meters
  ---------------------------------------------------------------------
  WS02006109           JUNCTION        0.44          0.149        1.671
  WS02006110           JUNCTION        0.06          0.013        1.837
  WS02006112           JUNCTION        0.13          0.032        1.648
  WS02006230           JUNCTION        0.01          0.006        1.564
  WS02006231           JUNCTION        0.13          0.124        1.406
  WS02006232           JUNCTION        0.48          0.331        1.149
  WS02006234           JUNCTION        0.31          0.324        0.916
  WS02006235           JUNCTION        0.42          0.415        0.875
  WS02006238           JUNCTION        0.44          0.437        0.993
  WS02006240           JUNCTION        0.28          0.410        0.980
  WS02006242           JUNCTION        0.32          0.478        0.342
  WS02006243           JUNCTION        0.22          0.408        0.362
  WS02006245           JUNCTION        0.21          0.398        0.452
  WS02006247           JUNCTION        0.21          0.417        0.343
  WS02006248           JUNCTION        0.17          0.357        0.023
  WS02006249           JUNCTION        0.19          0.390        0.000
  WS02006239           JUNCTION        0.33          0.410        0.880
  WS02006251           JUNCTION        0.06          0.164        1.016
  WS02006252           JUNCTION        0.77          0.349        0.751
  WS02006253           JUNCTION        0.07          0.193        2.287
  WS02006256           JUNCTION        5.92          2.050        0.000
  WS02006228           JUNCTION        0.43          0.228        1.972
  YS02001751           JUNCTION        2.69          0.136        1.064
  YS02001754           JUNCTION        4.14          0.367        0.783
  YS02001762           JUNCTION        4.87          0.632        0.518
  YS02001765           JUNCTION        4.76          0.582        0.518
  YS02001767           JUNCTION        4.63          0.542        0.488
  YS02001770           JUNCTION        4.54          0.504        0.416
  YS02001774           JUNCTION        4.83          0.605        0.445
  YS02001779           JUNCTION        4.02          0.340        0.340
  YS02001759           JUNCTION        4.95          0.667        0.543
  YS02001619           JUNCTION        1.73          0.095        0.515
  YS02001629           JUNCTION        1.73          0.095        0.375
  YS02001641           JUNCTION        4.80          0.601        0.499
  YS02001644           JUNCTION        4.81          0.604        0.316
  YS02001652           JUNCTION        4.25          0.399        0.731
  YS02001655           JUNCTION        3.11          0.166        1.034
  YS02001622           JUNCTION        2.20          0.120        0.500
  YS02001633           JUNCTION        4.70          0.565        0.495
  YS02001649           JUNCTION        4.89          0.640        0.410
  YS02001757           JUNCTION        5.23          0.767        0.443
  YS02001625           JUNCTION        4.32          0.425        0.355
  YS02163301           JUNCTION        4.57          0.519        0.511
  YS02163601           JUNCTION        4.88          0.642        0.438
  YS02164001           JUNCTION        4.75          0.581        0.519
  YS02001647           JUNCTION        4.29          0.423        0.477
  
  
  *********************
  Node Flooding Summary
  *********************
  
  Flooding refers to all water that overflows a node, whether it ponds or not.
  --------------------------------------------------------------------------
                                                             Total   Maximum
                                 Maximum   Time of Max       Flood    Ponded
                        Hours       Rate    Occurrence      Volume     Depth
  Node                 Flooded       LPS   days hr:min    10^6 ltr    Meters
  --------------------------------------------------------------------------
  WS02006249              0.05     67.87      0  06:00       0.004     0.000
  WS02006256              1.76    733.94      0  03:11       1.015     0.000
  
  
  **********************
  Storage Volume Summary
  **********************
  
  --------------------------------------------------------------------------------------------------
                         Average     Avg  Evap Exfil       Maximum     Max    Time of Max    Maximum
                          Volume    Pcnt  Pcnt  Pcnt        Volume    Pcnt     Occurrence    Outflow
  Storage Unit           1000 m3    Full  Loss  Loss       1000 m3    Full    days hr:min        LPS
  --------------------------------------------------------------------------------------------------
  JK-storage               0.074      25     0     0         0.240      82       0  02:57     983.00
  CC-storage               1.897      12     0     0         2.824      18       0  07:50     399.91
  XR-storage               0.265      29     0     0         0.642      69       0  07:26     380.00
  
  
  ***********************
  Outfall Loading Summary
  ***********************
  
  ---------------------------------------------------------------------------------------------------------------------------------
                         Flow       Avg       Max       Total         Total         Total         Total         Total         Total
                         Freq      Flow      Flow      Volume           COD            SS            TN            TP         NH4-N
  Outfall Node           Pcnt       LPS       LPS    10^6 ltr            kg            kg            kg            kg            kg
  ---------------------------------------------------------------------------------------------------------------------------------
  WSC                   99.97    552.07    913.51      12.565      1615.982      2592.935       141.168        17.403        87.598
  ---------------------------------------------------------------------------------------------------------------------------------
  System                99.97    552.07    913.51      12.565      1615.982      2592.935       141.168        17.403        87.598
  
  
  ********************
  Link Flow Summary
  ********************
  
  -----------------------------------------------------------------------------
                                 Maximum  Time of Max   Maximum    Max/    Max/
                                  |Flow|   Occurrence   |Veloc|    Full    Full
  Link                 Type          LPS  days hr:min     m/sec    Flow   Depth
  -----------------------------------------------------------------------------
  WS02003066WSF200     CONDUIT    513.18     0  06:08      2.75    0.09    0.22
  WS02006287WS02006284 CONDUIT    109.31     0  01:47      1.30    0.05    0.16
  WS02006284WS02006280 CONDUIT    109.40     0  01:48      1.55    0.05    0.15
  WS02006280WS02006229 CONDUIT    109.40     0  01:48      2.48    0.02    0.11
  WS02006229WS02006228 CONDUIT    530.60     0  06:01      1.06    1.76    1.00
  WS02006256WS02006235 CONDUIT    288.92     0  00:00      4.23    3.06    1.00
  WS02006253WS02006251 CONDUIT     59.21     0  05:57      0.38    0.18    1.00
  WS02006252WS02006251 CONDUIT    402.31     0  06:00      3.20    1.48    1.00
  WS02006251WS02006249 CONDUIT    417.91     0  06:00      1.10    1.21    1.00
  WS02006249WS02006248 CONDUIT    381.82     0  05:10      1.14    2.09    1.00
  WS02006248WS02006247 CONDUIT    377.33     0  05:11      1.11    0.82    1.00
  WS02006247WS02006245 CONDUIT    373.23     0  05:31      1.08    2.96    1.00
  WS02006245WS02006243 CONDUIT    369.10     0  05:31      1.10    1.09    1.00
  WS02006243WS02006242 CONDUIT    364.56     0  05:31      1.00    0.78    1.00
  WS02006242WS02006240 CONDUIT    360.32     0  05:32      0.97    1.43    1.00
  WS02006240WS02006239 CONDUIT    356.53     0  05:32      1.00    1.12    1.00
  WS02006239WS02006238 CONDUIT    355.17     0  05:32      0.95    1.14    1.00
  WS02006238WS02006235 CONDUIT    354.78     0  06:00      1.45    0.79    1.00
  WS02006235WS02006234 CONDUIT    510.28     0  06:00      1.33    5.38    1.00
  WS02006234WS02006232 CONDUIT    510.69     0  06:00      1.39    1.03    1.00
  WS02006232WS02006231 CONDUIT    510.84     0  06:00      1.33    1.07    1.00
  WS02006231WS02006230 CONDUIT    511.24     0  06:00      1.33    7.75    1.00
  WS02006230WS02006229 CONDUIT    518.59     0  06:01      1.35   11.54    1.00
  WS02006228WS02006109 CONDUIT    530.55     0  06:01      1.06    2.32    1.00
  WS02006116WS02004401 CONDUIT    522.56     0  06:04      1.00    0.72    0.83
  WS02006115WS02006116 CONDUIT    526.97     0  06:02      1.02    0.68    0.75
  WS02006113WS02006111 CONDUIT    552.91     0  06:01      2.45    0.66    0.46
  WS02006112WS02006115 CONDUIT    539.67     0  06:02      0.75    0.32    0.86
  WS02006111WS02006112 CONDUIT    535.35     0  06:02      1.60    0.25    0.67
  WS02006110WS02006113 CONDUIT    533.52     0  06:01      1.26    0.49    0.78
  WS02006109WS02006110 CONDUIT    531.53     0  06:01      1.06    1.02    1.00
  WS02004411WS02004412 CONDUIT    513.94     0  06:07      0.91    0.73    0.68
  WS02004401WS02004402 CONDUIT    521.35     0  06:05      1.00    0.63    0.85
  WS02004413WS02003067 CONDUIT    513.13     0  06:08      1.08    0.22    0.58
  WS02004412WS02004413 CONDUIT    513.36     0  06:08      0.80    0.34    0.76
  WS02004410WS02004411 CONDUIT    515.16     0  06:06      0.93    0.70    0.67
  WS02004409WS02004410 CONDUIT    516.96     0  06:06      0.95    0.67    0.66
  WS02004407WS02004409 CONDUIT    519.75     0  06:05      1.45    0.18    0.47
  WS02004406WS02004407 CONDUIT    519.98     0  06:05      1.02    0.23    0.62
  WS02004405WS02004406 CONDUIT    520.26     0  06:05      1.10    1.03    0.95
  WS02004404WS02004405 CONDUIT    520.36     0  06:05      1.15    5.10    0.95
  WS02004403WS02004404 CONDUIT    520.52     0  06:05      0.98    0.38    0.92
  WS02004402WS02004403 CONDUIT    520.46     0  06:05      1.02    0.75    0.87
  WS02004139WS02001211 CONDUIT    381.49     0  06:18      0.90    0.48    0.59
  WS02004138WS02004139 CONDUIT    395.52     0  00:00      3.64    0.08    0.44
  WS02003067WS02003066 CONDUIT    513.16     0  06:08      1.18    0.16    0.41
  WS02001213WS02003059 CONDUIT    393.35     0  06:30      0.89    0.65    0.77
  WS02001212WS02001213 CONDUIT    391.19     0  06:30      1.32    0.60    0.47
  WS02001211WS02001212 CONDUIT    390.05     0  06:17      0.78    0.30    0.65
  WS02003072WS02003073 CONDUIT    911.60     0  06:11      1.71    1.97    0.48
  WS02003069WS02003072 CONDUIT    911.56     0  06:10      1.61    0.44    0.50
  WS02003060WS02003069 CONDUIT    911.38     0  06:10      1.85    0.36    0.45
  WS02003059WS02003060 CONDUIT    396.39     0  06:31      0.95    0.26    0.65
  HS02004901HS02004770 CONDUIT      5.11     0  01:43      0.05    0.02    0.25
  HS02004876HS02004881 CONDUIT     17.38     0  01:47      0.35    0.18    0.07
  HS02004870HS02004876 CONDUIT     13.72     0  01:48      0.25    0.01    0.08
  HS02004842HS02004848 CONDUIT      3.57     0  03:01      0.02    0.00    0.26
  HS02004837HS02004842 CONDUIT      4.48     0  00:03      0.42    0.00    0.27
  HS02004830HS02004837 CONDUIT     16.00     0  01:48      0.37    0.02    0.06
  HS02004824HS02004830 CONDUIT     16.16     0  01:49      0.42    0.02    0.06
  HS02004817HS02004824 CONDUIT     23.96     0  01:54      0.17    0.01    0.36
  HS02004770HS02004777 CONDUIT     26.22     0  01:42      0.15    0.05    0.27
  HS02004799HS02004480 CONDUIT     66.36     0  01:45      0.42    0.08    0.23
  HS02004792HS02004799 CONDUIT     60.61     0  01:45      0.49    0.04    0.18
  HS02004788HS02004792 CONDUIT     35.47     0  01:46      0.65    0.02    0.08
  HS02004785HS02004788 CONDUIT     25.98     0  01:46      0.37    0.20    0.10
  HS02004777HS02004785 CONDUIT     25.90     0  01:44      0.18    0.03    0.21
  HS02004480HS02004478 CONDUIT     78.23     0  01:46      0.73    0.33    0.15
  HS02004479HS02004480 CONDUIT     12.23     0  01:49      0.25    0.01    0.23
  HS02004862HS02004870 CONDUIT      9.90     0  01:49      0.35    0.01    0.04
  HS02004848HS02004852 CONDUIT      3.58     0  01:48      0.23    0.00    0.02
  HS02004856HS02004862 CONDUIT      6.41     0  01:48      0.25    0.01    0.04
  HS02004852HS02004856 CONDUIT      3.57     0  01:50      0.07    0.00    0.08
  HS02004802HS02004478 CONDUIT     31.67     0  01:53      0.23    0.03    0.20
  HS02004478WS02006287 CONDUIT    109.32     0  01:47      0.99    0.03    0.12
  HS02004817HS02004807 CONDUIT     24.77     0  01:56      0.08    0.01    0.46
  HS02004807HS02004802 CONDUIT     31.54     0  01:52      0.20    0.06    0.25
  YS02001759YS02001757 CONDUIT    146.10     0  03:01      0.19    0.10    1.00
  YS02001762YS02001759 CONDUIT     74.75     0  03:08      0.17    0.09    1.00
  YS02001765YS02001762 CONDUIT     74.55     0  02:55      0.27    0.07    1.00
  YS02001770YS02001767 CONDUIT     82.23     0  03:08      0.33    0.33    1.00
  YS02001774YS02001770 CONDUIT     31.77     0  01:55      0.20    0.02    1.00
  YS02001779YS02001774 CONDUIT     22.53     0  03:12      0.06    0.01    1.00
  YS02001649YS02001757 CONDUIT    217.89     0  03:07      0.28    0.13    1.00
  YS02001767YS02001765 CONDUIT     80.17     0  02:56      0.33    0.10    1.00
  YS02006561YS02001783 CONDUIT    241.22     0  03:05      1.67    0.12    0.33
  YS02001783YS02001784 CONDUIT    241.21     0  03:05      1.13    0.33    0.44
  YS02001784YS02001785 CONDUIT    242.27     0  03:06      1.19    0.56    0.42
  YS02001788YS02001790 CONDUIT    242.40     0  03:06      1.75    0.18    0.32
  YS02001790YS02001791 CONDUIT    242.54     0  03:06      2.05    0.26    0.29
  YS02001791YS02001793 CONDUIT    254.23     0  03:03      4.05    0.11    0.61
  YS02001910YS02001907 CONDUIT     78.05     0  03:05      0.49    0.04    0.68
  YS02001786YS02001788 CONDUIT    242.33     0  03:06      1.61    0.47    0.34
  YS02001915YS02001910 CONDUIT     78.21     0  03:04      0.52    0.04    0.47
  YS02001918YS02001915 CONDUIT     27.55     0  03:05      0.44    0.02    0.22
  YS02001923YS02001920 CONDUIT     24.73     0  03:03      0.41    0.01    0.13
  YS02001926YS02001923 CONDUIT     24.70     0  03:03      0.45    0.04    0.12
  YS02001929YS02001926 CONDUIT     24.79     0  03:01      0.48    0.01    0.12
  YS02001920YS02001918 CONDUIT     27.57     0  03:04      0.42    0.03    0.14
  YS02001629YS02163301 CONDUIT     52.80     0  03:04      0.09    0.07    1.00
  YS02001619YS02001622 CONDUIT     62.45     0  03:10      0.53    0.09    1.00
  YS02001622YS02001625 CONDUIT     58.57     0  03:11      0.26    0.03    1.00
  YS02001625YS02001629 CONDUIT     62.57     0  03:11      0.17    0.03    1.00
  YS02163301YS02001633 CONDUIT     47.75     0  03:07      0.10    0.04    1.00
  YS02163601YS02164001 CONDUIT    104.08     0  03:05      0.13    0.09    1.00
  YS02164001YS02001641 CONDUIT     99.73     0  03:06      0.13    0.14    1.00
  YS02001641YS02001644 CONDUIT    102.64     0  03:05      0.13    0.33    1.00
  YS02001647YS02001649 CONDUIT    159.30     0  03:05      0.21    0.08    1.00
  YS02006553YS02006556 CONDUIT    165.88     0  03:07      0.26    0.14    0.76
  YS02006556YS02006558 CONDUIT    166.04     0  03:07      0.25    0.13    0.79
  YSB6556YSB1171       CONDUIT      6.85     0  01:47      0.06    0.01    0.49
  YS02001907YS02006553 CONDUIT    165.65     0  03:07      0.21    0.19    0.87
  YS02006558YS02006561 CONDUIT    241.22     0  03:05      2.15    0.53    0.42
  YS02001633YS02163601 CONDUIT    105.41     0  03:04      0.13    0.11    1.00
  YS02001644YS02001647 CONDUIT    157.72     0  03:05      0.21    0.09    1.00
  YS02001745YS02001748 CONDUIT     95.02     0  03:51      1.24    0.04    0.68
  YS02001748YS02001751 CONDUIT     88.29     0  03:50      0.93    0.04    0.97
  YS02001751YS02001754 CONDUIT     70.62     0  03:50      0.85    0.03    1.00
  YS02001754YS02001757 CONDUIT     86.57     0  02:34      0.33    0.03    1.00
  YS02001882YS02001884 CONDUIT      2.55     0  01:46      0.11    0.00    0.40
  YS02001884YS02001887 CONDUIT      7.12     0  01:31      0.07    0.01    0.50
  YS02001890YS02001895 CONDUIT     88.27     0  03:02      0.25    0.04    0.47
  YS02001895YS02001898 CONDUIT     87.85     0  03:03      0.46    0.15    0.33
  YS02001898YS02001901 CONDUIT     87.59     0  03:03      0.29    0.06    0.41
  YS02001901YS02001904 CONDUIT     87.50     0  03:05      0.27    0.14    0.46
  YS02001904YS02001907 CONDUIT     87.73     0  03:05      0.17    0.03    0.62
  YS02001887YS02001890 CONDUIT     89.08     0  03:02      0.20    0.15    0.55
  YS02001652YS02001649 CONDUIT     83.24     0  03:03      0.53    0.04    1.00
  YS02001655YS02001652 CONDUIT     74.05     0  02:57      0.91    0.04    1.00
  YS02001658YS02001655 CONDUIT     90.50     0  03:03      1.07    0.04    0.94
  YS02001661YS02001658 CONDUIT     69.91     0  03:58      1.26    0.03    0.71
  YS02001664YS02001661 CONDUIT     65.72     0  03:01      0.99    0.02    0.35
  YSB1154YSB6556       CONDUIT      6.77     0  01:47      0.19    0.01    0.38
  YSB1174YSB1171       CONDUIT      6.58     0  01:34      0.04    0.01    0.50
  YSB1171HS02004479    CONDUIT     12.05     0  01:49      0.54    0.01    0.38
  HS02004881HS02006253 CONDUIT     19.47     0  01:47      1.27    0.00    0.50
  YS02001793JiankangQianchi CONDUIT    760.42     0  03:03     12.38    0.06    0.92
  YS02001757CaochengTiaoxuchi CONDUIT    383.64     0  03:05      0.66    0.17    1.00
  WSF200WS02003060     CONDUIT    513.26     0  06:09      1.72    0.11    0.33
  1                    CONDUIT    913.51     0  06:12      3.25    0.32    0.39
  CC-Pump-1            PUMP       200.00     0  05:00              1.00
  CC-Pump-2            PUMP       199.91     0  06:00              1.00
  JK-Pump-1            PUMP       300.00     0  00:00              1.00
  JK-Pump-2            PUMP       683.00     0  03:10              1.00
  XR-Pump-1            PUMP        95.00     0  00:00              1.00
  XR-Pump-2            PUMP        95.00     0  00:00              1.00
  XR-Pump-3            PUMP        95.00     0  00:00              1.00
  XR-Pump-4            PUMP        95.00     0  00:00              1.00
  
  
  ***************************
  Flow Classification Summary
  ***************************
  
  -------------------------------------------------------------------------------------
                      Adjusted    ---------- Fraction of Time in Flow Class ---------- 
                       /Actual         Up    Down  Sub   Sup   Up    Down  Norm  Inlet 
  Conduit               Length    Dry  Dry   Dry   Crit  Crit  Crit  Crit  Ltd   Ctrl  
  -------------------------------------------------------------------------------------
  WS02003066WSF200        1.00   0.01  0.03  0.00  0.00  0.95  0.00  0.00  0.88  0.00
  WS02006287WS02006284    1.00   0.05  0.03  0.00  0.70  0.23  0.00  0.00  0.82  0.00
  WS02006284WS02006280    1.00   0.06  0.00  0.00  0.00  0.00  0.00  0.94  0.00  0.00
  WS02006280WS02006229    1.00   0.06  0.00  0.00  0.00  0.00  0.00  0.94  0.00  0.00
  WS02006229WS02006228    1.00   0.00  0.00  0.00  0.99  0.00  0.00  0.01  0.00  0.00
  WS02006256WS02006235    1.00   0.00  0.00  0.00  1.00  0.00  0.00  0.00  0.00  0.00
  WS02006253WS02006251    1.00   0.03  0.03  0.00  0.93  0.00  0.01  0.00  0.00  0.00
  WS02006252WS02006251    1.00   0.40  0.00  0.00  0.01  0.00  0.59  0.00  0.00  0.00
  WS02006251WS02006249    1.00   0.00  0.00  0.00  1.00  0.00  0.00  0.00  0.78  0.00
  WS02006249WS02006248    1.00   0.00  0.01  0.00  0.65  0.00  0.34  0.00  0.00  0.00
  WS02006248WS02006247    1.00   0.01  0.00  0.00  0.99  0.00  0.00  0.00  0.49  0.00
  WS02006247WS02006245    1.00   0.01  0.00  0.00  0.98  0.00  0.00  0.01  0.00  0.00
  WS02006245WS02006243    1.00   0.01  0.00  0.00  0.93  0.00  0.00  0.06  0.01  0.00
  WS02006243WS02006242    1.00   0.00  0.00  0.00  1.00  0.00  0.00  0.00  0.48  0.00
  WS02006242WS02006240    1.00   0.00  0.00  0.00  1.00  0.00  0.00  0.00  0.00  0.00
  WS02006240WS02006239    1.00   0.00  0.00  0.00  0.86  0.00  0.00  0.14  0.02  0.00
  WS02006239WS02006238    1.00   0.00  0.00  0.00  1.00  0.00  0.00  0.00  0.25  0.00
  WS02006238WS02006235    1.00   0.00  0.00  0.00  1.00  0.00  0.00  0.00  0.00  0.00
  WS02006235WS02006234    1.00   0.00  0.00  0.00  0.89  0.00  0.11  0.00  0.00  0.00
  WS02006234WS02006232    1.00   0.00  0.00  0.00  1.00  0.00  0.00  0.00  0.16  0.00
  WS02006232WS02006231    1.00   0.00  0.00  0.00  1.00  0.00  0.00  0.00  0.00  0.00
  WS02006231WS02006230    1.00   0.00  0.00  0.00  0.39  0.00  0.61  0.00  0.00  0.00
  WS02006230WS02006229    1.00   0.00  0.00  0.00  0.99  0.00  0.00  0.01  0.00  0.00
  WS02006228WS02006109    1.00   0.00  0.00  0.00  1.00  0.00  0.00  0.00  0.01  0.00
  WS02006116WS02004401    1.00   0.01  0.00  0.00  0.99  0.00  0.00  0.00  0.00  0.00
  WS02006115WS02006116    1.00   0.01  0.00  0.00  0.98  0.00  0.00  0.00  0.00  0.00
  WS02006113WS02006111    1.00   0.01  0.00  0.00  0.00  0.99  0.00  0.00  0.26  0.00
  WS02006112WS02006115    1.00   0.01  0.00  0.00  0.98  0.00  0.00  0.00  0.00  0.00
  WS02006111WS02006112    1.00   0.01  0.00  0.00  0.99  0.00  0.00  0.00  0.98  0.00
  WS02006110WS02006113    1.00   0.01  0.00  0.00  0.99  0.00  0.00  0.00  0.00  0.00
  WS02006109WS02006110    1.00   0.00  0.01  0.00  0.99  0.00  0.00  0.00  0.00  0.00
  WS02004411WS02004412    1.00   0.03  0.00  0.00  0.97  0.00  0.00  0.00  0.00  0.00
  WS02004401WS02004402    1.00   0.01  0.00  0.00  0.98  0.00  0.00  0.00  0.00  0.00
  WS02004413WS02003067    1.00   0.03  0.01  0.00  0.00  0.00  0.96  0.00  0.00  0.00
  WS02004412WS02004413    1.00   0.03  0.00  0.00  0.97  0.00  0.00  0.00  0.01  0.00
  WS02004410WS02004411    1.00   0.03  0.00  0.00  0.97  0.00  0.00  0.00  0.00  0.00
  WS02004409WS02004410    1.00   0.03  0.00  0.00  0.97  0.00  0.00  0.00  0.02  0.00
  WS02004407WS02004409    1.00   0.03  0.00  0.00  0.97  0.00  0.00  0.00  0.95  0.00
  WS02004406WS02004407    1.00   0.00  0.02  0.00  0.97  0.00  0.00  0.00  0.00  0.00
  WS02004405WS02004406    1.00   0.00  0.00  0.00  1.00  0.00  0.00  0.00  0.00  0.00
  WS02004404WS02004405    1.00   0.00  0.00  0.00  1.00  0.00  0.00  0.00  0.00  0.00
  WS02004403WS02004404    1.00   0.00  0.02  0.00  0.98  0.00  0.00  0.00  0.00  0.00
  WS02004402WS02004403    1.00   0.02  0.00  0.00  0.98  0.00  0.00  0.00  0.00  0.00
  WS02004139WS02001211    1.00   0.00  0.00  0.00  1.00  0.00  0.00  0.00  0.00  0.00
  WS02004138WS02004139    1.00   0.00  0.01  0.00  0.98  0.00  0.00  0.00  1.00  0.00
  WS02003067WS02003066    1.00   0.04  0.01  0.00  0.95  0.00  0.00  0.00  0.00  0.00
  WS02001213WS02003059    1.00   0.00  0.00  0.00  1.00  0.00  0.00  0.00  0.00  0.00
  WS02001212WS02001213    1.00   0.00  0.00  0.00  0.73  0.00  0.27  0.00  0.00  0.00
  WS02001211WS02001212    1.00   0.00  0.00  0.00  1.00  0.00  0.00  0.00  0.00  0.00
  WS02003072WS02003073    1.00   0.00  0.00  0.00  0.00  0.00  0.00  1.00  0.00  0.00
  WS02003069WS02003072    1.00   0.00  0.00  0.00  1.00  0.00  0.00  0.00  0.34  0.00
  WS02003060WS02003069    1.00   0.00  0.00  0.00  0.97  0.03  0.00  0.00  0.26  0.00
  WS02003059WS02003060    1.00   0.00  0.00  0.00  1.00  0.00  0.00  0.00  0.01  0.00
  HS02004901HS02004770    1.00   0.06  0.00  0.00  0.94  0.00  0.00  0.00  0.00  0.00
  HS02004876HS02004881    1.00   0.01  0.00  0.00  0.99  0.00  0.00  0.00  0.00  0.00
  HS02004870HS02004876    1.00   0.00  0.00  0.00  0.99  0.01  0.00  0.00  0.95  0.00
  HS02004842HS02004848    1.00   0.00  0.06  0.00  0.94  0.00  0.00  0.00  0.61  0.00
  HS02004837HS02004842    1.00   0.00  0.00  0.00  1.00  0.00  0.00  0.00  0.11  0.00
  HS02004830HS02004837    1.00   0.00  0.00  0.00  1.00  0.00  0.00  0.00  0.99  0.00
  HS02004824HS02004830    1.00   0.00  0.00  0.00  1.00  0.00  0.00  0.00  0.00  0.00
  HS02004817HS02004824    1.00   0.00  0.00  0.00  1.00  0.00  0.00  0.00  1.00  0.00
  HS02004770HS02004777    1.00   0.00  0.06  0.00  0.94  0.00  0.00  0.00  0.03  0.00
  HS02004799HS02004480    1.00   0.00  0.02  0.00  0.93  0.00  0.05  0.00  0.00  0.00
  HS02004792HS02004799    1.00   0.00  0.00  0.00  0.99  0.01  0.00  0.00  0.98  0.00
  HS02004788HS02004792    1.00   0.00  0.00  0.00  0.99  0.01  0.00  0.00  0.98  0.00
  HS02004785HS02004788    1.00   0.00  0.00  0.00  1.00  0.00  0.00  0.00  0.00  0.00
  HS02004777HS02004785    1.00   0.00  0.00  0.00  1.00  0.00  0.00  0.00  0.13  0.00
  HS02004480HS02004478    1.00   0.06  0.00  0.00  0.71  0.00  0.00  0.23  0.00  0.00
  HS02004479HS02004480    1.00   0.02  0.00  0.00  0.98  0.00  0.00  0.00  0.12  0.00
  HS02004862HS02004870    1.00   0.00  0.00  0.00  1.00  0.00  0.00  0.00  0.04  0.00
  HS02004848HS02004852    1.00   0.06  0.00  0.00  0.94  0.00  0.00  0.00  0.74  0.00
  HS02004856HS02004862    1.00   0.00  0.08  0.00  0.92  0.00  0.00  0.00  0.81  0.00
  HS02004852HS02004856    1.00   0.06  0.01  0.00  0.93  0.00  0.00  0.00  0.85  0.00
  HS02004802HS02004478    1.00   0.06  0.00  0.00  0.93  0.00  0.00  0.00  0.02  0.00
  HS02004478WS02006287    1.00   0.08  0.00  0.00  0.92  0.00  0.00  0.00  0.83  0.00
  HS02004817HS02004807    1.00   0.00  0.06  0.00  0.94  0.00  0.00  0.00  0.01  0.00
  HS02004807HS02004802    1.00   0.06  0.00  0.00  0.93  0.00  0.00  0.01  0.00  0.00
  YS02001759YS02001757    1.00   0.00  0.00  0.00  1.00  0.00  0.00  0.00  0.17  0.00
  YS02001762YS02001759    1.00   0.00  0.00  0.00  1.00  0.00  0.00  0.00  0.03  0.00
  YS02001765YS02001762    1.00   0.00  0.00  0.00  1.00  0.00  0.00  0.00  0.16  0.00
  YS02001770YS02001767    1.00   0.00  0.00  0.00  1.00  0.00  0.00  0.00  0.00  0.00
  YS02001774YS02001770    1.00   0.00  0.06  0.00  0.94  0.00  0.00  0.00  0.03  0.00
  YS02001779YS02001774    1.00   0.00  0.00  0.00  1.00  0.00  0.00  0.00  0.20  0.00
  YS02001649YS02001757    1.00   0.00  0.00  0.00  1.00  0.00  0.00  0.00  0.17  0.00
  YS02001767YS02001765    1.00   0.00  0.00  0.00  1.00  0.00  0.00  0.00  0.00  0.00
  YS02006561YS02001783    1.00   0.09  0.00  0.00  0.00  0.91  0.00  0.00  0.79  0.00
  YS02001783YS02001784    1.00   0.00  0.09  0.00  0.91  0.00  0.00  0.00  0.01  0.00
  YS02001784YS02001785    1.00   0.00  0.00  0.00  1.00  0.00  0.00  0.00  0.19  0.00
  YS02001788YS02001790    1.00   0.00  0.00  0.00  0.10  0.90  0.00  0.00  0.87  0.00
  YS02001790YS02001791    1.00   0.00  0.00  0.00  0.01  0.99  0.00  0.00  0.54  0.00
  YS02001791YS02001793    1.00   0.00  0.00  0.00  0.02  0.98  0.00  0.00  0.04  0.00
  YS02001910YS02001907    1.00   0.00  0.00  0.00  0.98  0.00  0.00  0.02  0.13  0.00
  YS02001786YS02001788    1.00   0.00  0.00  0.00  0.10  0.90  0.00  0.00  0.00  0.00
  YS02001915YS02001910    1.00   0.00  0.00  0.00  0.98  0.02  0.00  0.00  0.18  0.00
  YS02001918YS02001915    1.00   0.00  0.00  0.00  0.99  0.01  0.00  0.00  0.86  0.00
  YS02001923YS02001920    1.00   0.00  0.00  0.00  1.00  0.00  0.00  0.00  1.00  0.00
  YS02001926YS02001923    1.00   0.00  0.04  0.00  0.00  0.00  0.96  0.00  0.00  0.00
  YS02001929YS02001926    1.00   0.00  0.06  0.00  0.94  0.00  0.00  0.00  0.87  0.00
  YS02001920YS02001918    1.00   0.00  0.00  0.00  1.00  0.00  0.00  0.00  0.00  0.00
  YS02001629YS02163301    1.00   0.07  0.00  0.00  0.92  0.00  0.00  0.00  0.00  0.00
  YS02001619YS02001622    1.00   0.06  0.00  0.00  0.94  0.00  0.00  0.00  0.00  0.00
  YS02001622YS02001625    1.00   0.06  0.00  0.00  0.94  0.00  0.00  0.00  0.06  0.00
  YS02001625YS02001629    1.00   0.06  0.03  0.00  0.88  0.00  0.03  0.00  0.00  0.00
  YS02163301YS02001633    1.00   0.00  0.07  0.00  0.93  0.00  0.00  0.00  0.00  0.00
  YS02163601YS02164001    1.00   0.00  0.04  0.00  0.96  0.00  0.00  0.00  0.00  0.00
  YS02164001YS02001641    1.00   0.01  0.04  0.00  0.96  0.00  0.00  0.00  0.06  0.00
  YS02001641YS02001644    1.00   0.00  0.00  0.00  1.00  0.00  0.00  0.00  0.00  0.00
  YS02001647YS02001649    1.00   0.00  0.08  0.00  0.91  0.00  0.00  0.00  0.01  0.00
  YS02006553YS02006556    1.00   0.01  0.00  0.00  0.99  0.00  0.00  0.00  0.03  0.00
  YS02006556YS02006558    1.00   0.00  0.00  0.00  1.00  0.00  0.00  0.00  0.00  0.00
  YSB6556YSB1171          1.00   0.02  0.03  0.00  0.94  0.00  0.00  0.00  0.00  0.00
  YS02001907YS02006553    1.00   0.00  0.01  0.00  0.98  0.00  0.00  0.00  0.00  0.00
  YS02006558YS02006561    1.00   0.09  0.00  0.00  0.00  0.91  0.00  0.00  0.79  0.00
  YS02001633YS02163601    1.00   0.00  0.00  0.00  0.99  0.00  0.00  0.00  0.16  0.00
  YS02001644YS02001647    1.00   0.00  0.08  0.00  0.92  0.00  0.00  0.00  0.00  0.00
  YS02001745YS02001748    1.00   0.00  0.00  0.00  0.79  0.02  0.00  0.19  0.13  0.00
  YS02001748YS02001751    1.00   0.00  0.00  0.00  0.94  0.06  0.00  0.00  0.18  0.00
  YS02001751YS02001754    1.00   0.00  0.00  0.00  0.90  0.00  0.00  0.10  0.03  0.00
  YS02001754YS02001757    1.00   0.00  0.00  0.00  1.00  0.00  0.00  0.00  0.20  0.00
  YS02001882YS02001884    1.00   0.07  0.00  0.00  0.93  0.00  0.00  0.00  0.00  0.00
  YS02001884YS02001887    1.00   0.03  0.02  0.00  0.95  0.00  0.00  0.00  0.00  0.00
  YS02001890YS02001895    1.00   0.00  0.07  0.00  0.92  0.00  0.00  0.00  0.00  0.00
  YS02001895YS02001898    1.00   0.08  0.00  0.00  0.90  0.00  0.02  0.00  0.00  0.00
  YS02001898YS02001901    1.00   0.08  0.00  0.00  0.92  0.00  0.00  0.00  0.02  0.00
  YS02001901YS02001904    1.00   0.08  0.00  0.00  0.92  0.00  0.00  0.00  0.00  0.00
  YS02001904YS02001907    1.00   0.00  0.08  0.00  0.92  0.00  0.00  0.00  0.00  0.00
  YS02001887YS02001890    1.00   0.00  0.00  0.00  0.98  0.00  0.02  0.00  0.00  0.00
  YS02001652YS02001649    1.00   0.00  0.00  0.00  0.99  0.00  0.00  0.00  0.18  0.00
  YS02001655YS02001652    1.00   0.00  0.00  0.00  0.90  0.00  0.00  0.10  0.03  0.00
  YS02001658YS02001655    1.00   0.00  0.07  0.00  0.88  0.05  0.00  0.00  0.17  0.00
  YS02001661YS02001658    1.00   0.07  0.00  0.00  0.79  0.14  0.00  0.00  0.25  0.00
  YS02001664YS02001661    1.00   0.06  0.00  0.00  0.93  0.01  0.00  0.00  0.76  0.00
  YSB1154YSB6556          1.00   0.06  0.00  0.00  0.94  0.00  0.00  0.00  0.02  0.00
  YSB1174YSB1171          1.00   0.03  0.02  0.00  0.95  0.00  0.00  0.00  0.00  0.00
  YSB1171HS02004479       1.00   0.02  0.00  0.00  0.97  0.00  0.00  0.01  0.11  0.00
  HS02004881HS02006253    1.00   0.03  0.00  0.00  0.46  0.00  0.00  0.51  0.17  0.00
  YS02001793JiankangQianchi    1.00   0.00  0.00  0.00  0.65  0.34  0.00  0.00  0.67  0.00
  YS02001757CaochengTiaoxuchi    1.00   0.00  0.12  0.00  0.88  0.00  0.00  0.00  0.00  0.00
  WSF200WS02003060        1.00   0.00  0.01  0.00  0.88  0.10  0.00  0.00  0.72  0.00
  1                       1.00   0.00  0.00  0.00  0.00  1.00  0.00  0.00  0.42  0.00
  
  
  *************************
  Conduit Surcharge Summary
  *************************
  
  ----------------------------------------------------------------------------
                                                           Hours        Hours 
                         --------- Hours Full --------   Above Full   Capacity
  Conduit                Both Ends  Upstream  Dnstream   Normal Flow   Limited
  ----------------------------------------------------------------------------
  WS02006229WS02006228        0.43      0.47      0.43      1.96         0.43
  WS02006256WS02006235        4.09      4.10      5.92      3.18         0.01
  WS02006253WS02006251        0.17      0.17      0.18      0.01         0.01
  WS02006252WS02006251        0.28      0.28      0.76      0.64         0.01
  WS02006251WS02006249        0.17      0.17      0.19      0.22         0.05
  WS02006249WS02006248        0.17      0.17      0.19      1.21         0.01
  WS02006248WS02006247        0.18      0.18      0.21      0.01         0.01
  WS02006247WS02006245        0.21      0.22      0.21      1.31         0.21
  WS02006245WS02006243        0.21      0.21      0.22      0.26         0.07
  WS02006243WS02006242        0.23      0.23      0.32      0.01         0.01
  WS02006242WS02006240        0.28      0.28      0.45      0.78         0.01
  WS02006240WS02006239        0.30      0.30      0.33      0.39         0.13
  WS02006239WS02006238        0.40      0.40      0.44      0.43         0.14
  WS02006238WS02006235        0.44      0.44      0.47      0.01         0.01
  WS02006235WS02006234        0.30      0.30      0.42      4.03         0.01
  WS02006234WS02006232        0.37      0.37      0.48      0.07         0.07
  WS02006232WS02006231        0.13      0.13      0.48      0.11         0.01
  WS02006231WS02006230        0.01      0.01      0.14      4.23         0.01
  WS02006230WS02006229        0.74      1.49      0.74      4.60         0.74
  WS02006228WS02006109        0.44      0.49      0.44      2.88         0.44
  WS02006112WS02006115        0.01      0.01      0.13      0.01         0.01
  WS02006111WS02006112        0.01      0.01      2.07      0.01         0.01
  WS02006110WS02006113        0.01      0.01      0.47      0.01         0.01
  WS02006109WS02006110        0.06      0.06      0.49      0.06         0.01
  WS02004405WS02004406        0.01      0.01      0.01      0.09         0.01
  WS02004404WS02004405        0.01      0.01      0.01      4.80         0.01
  WS02003072WS02003073        0.01      0.01      0.01      3.34         0.01
  YS02001759YS02001757        4.95      4.95      5.23      0.01         0.01
  YS02001762YS02001759        4.87      4.87      4.95      0.01         0.01
  YS02001765YS02001762        4.76      4.76      4.87      0.01         0.01
  YS02001770YS02001767        4.62      4.63      4.63      0.01         0.12
  YS02001774YS02001770        4.54      4.54      4.83      0.01         0.01
  YS02001779YS02001774        4.02      4.02      4.83      0.01         0.01
  YS02001649YS02001757        4.89      4.89      5.23      0.01         0.01
  YS02001767YS02001765        4.63      4.63      4.76      0.01         0.01
  YS02001791YS02001793        0.01      0.01      0.01      0.01         0.01
  YS02001629YS02163301        4.48      4.48      4.57      0.01         0.01
  YS02001619YS02001622        1.73      1.73      2.19      0.01         0.01
  YS02001622YS02001625        2.19      2.19      4.31      0.01         0.01
  YS02001625YS02001629        1.73      1.73      4.31      0.01         0.01
  YS02163301YS02001633        4.57      4.57      4.77      0.01         0.01
  YS02163601YS02164001        4.75      4.75      4.88      0.01         0.01
  YS02164001YS02001641        4.75      4.75      4.80      0.01         0.01
  YS02001641YS02001644        4.80      4.80      4.81      0.01         0.12
  YS02001647YS02001649        4.29      4.29      4.89      0.01         0.01
  YS02001633YS02163601        4.70      4.70      4.88      0.01         0.01
  YS02001644YS02001647        4.29      4.29      4.81      0.01         0.01
  YS02001748YS02001751        0.01      0.01      2.69      0.01         0.01
  YS02001751YS02001754        2.69      2.69      4.14      0.01         0.01
  YS02001754YS02001757        4.29      4.29      5.23      0.01         0.01
  YS02001652YS02001649        4.34      4.34      4.89      0.01         0.01
  YS02001655YS02001652        3.11      3.11      4.25      0.01         0.01
  YS02001658YS02001655        0.01      0.01      3.11      0.01         0.01
  HS02004881HS02006253        0.01      0.01      0.07      0.01         0.01
  YS02001793JiankangQianchi        0.01      0.01      3.40      0.01         0.01
  YS02001757CaochengTiaoxuchi        0.32      0.32      5.23      0.01         0.01
  
  
  ***************
  Pumping Summary
  ***************
  
  ---------------------------------------------------------------------------------------------------------
                                                  Min       Avg       Max     Total     Power    % Time Off
                        Percent   Number of      Flow      Flow      Flow    Volume     Usage    Pump Curve
  Pump                 Utilized   Start-Ups       LPS       LPS       LPS  10^6 ltr     Kw-hr    Low   High
  ---------------------------------------------------------------------------------------------------------
  CC-Pump-1               19.15           1      0.00    185.20    200.00     0.960      2.00    0.0    0.0
  CC-Pump-2               12.77           2      0.00     85.42    199.91     0.360      0.83    0.0    0.0
  JK-Pump-1               46.81           5      0.00    157.42    300.00     2.131     38.63    0.0    0.0
  JK-Pump-2               27.66           4      0.00    159.37    683.00     1.275     26.59    0.0   92.4
  XR-Pump-1               85.09           5      0.00     88.22     95.00     1.995     39.45    0.0    0.0
  XR-Pump-2               80.84           6      0.00     87.78     95.00     1.881     37.31    0.0    0.0
  XR-Pump-3               74.46           6      0.00     86.17     95.00     1.710     33.90    0.0    0.0
  XR-Pump-4               74.46           6      0.00     86.17     95.00     1.710     33.90    0.0    0.0
  
  
  ***************************
  Link Pollutant Load Summary
  ***************************
  
  ------------------------------------------------------------------------------------------
                                 COD            SS            TN            TP         NH4-N
  Link                            kg            kg            kg            kg            kg
  ------------------------------------------------------------------------------------------
  WS02003066WSF200           232.815       378.973        10.101         1.058         5.799
  WS02006287WS02006284        92.547       152.768         6.010         0.705         3.631
  WS02006284WS02006280        92.999       153.492         6.054         0.711         3.659
  WS02006280WS02006229        92.974       153.452         6.051         0.711         3.657
  WS02006229WS02006228       232.371       378.051        10.158         1.066         5.838
  WS02006256WS02006235        63.774       102.491         2.277         0.220         1.270
  WS02006253WS02006251        11.212        19.125         0.361         0.032         0.194
  WS02006252WS02006251        67.295       107.711         1.596         0.116         0.790
  WS02006251WS02006249        76.488       123.622         1.911         0.145         0.962
  WS02006249WS02006248        76.157       123.083         1.902         0.145         0.957
  WS02006248WS02006247        76.219       123.198         1.900         0.144         0.956
  WS02006247WS02006245        76.311       123.349         1.902         0.144         0.956
  WS02006245WS02006243        76.419       123.544         1.898         0.144         0.954
  WS02006243WS02006242        77.655       125.590         1.932         0.146         0.971
  WS02006242WS02006240        80.004       129.449         2.005         0.153         1.011
  WS02006240WS02006239        82.688       133.788         2.100         0.162         1.064
  WS02006239WS02006238        85.928       138.914         2.227         0.175         1.136
  WS02006238WS02006235        88.047       142.262         2.309         0.183         1.183
  WS02006235WS02006234       140.092       225.733         4.167         0.363         2.219
  WS02006234WS02006232       140.210       225.917         4.173         0.364         2.222
  WS02006232WS02006231       140.114       225.758         4.169         0.363         2.220
  WS02006231WS02006230       139.716       225.114         4.153         0.362         2.211
  WS02006230WS02006229       139.921       225.436         4.161         0.362         2.215
  WS02006228WS02006109       231.628       376.879        10.071         1.055         5.784
  WS02006116WS02004401       236.513       384.859        10.405         1.095         5.987
  WS02006115WS02006116       237.409       386.279        10.490         1.106         6.040
  WS02006113WS02006111       238.203       387.396        10.701         1.134         6.178
  WS02006112WS02006115       238.289       387.701        10.558         1.114         6.081
  WS02006111WS02006112       237.619       386.467        10.645         1.127         6.142
  WS02006110WS02006113       238.492       387.866        10.722         1.136         6.190
  WS02006109WS02006110       239.480       389.461        10.803         1.146         6.240
  WS02004411WS02004412       233.771       380.538        10.171         1.067         5.842
  WS02004401WS02004402       235.545       383.304        10.327         1.086         5.938
  WS02004413WS02003067       232.869       379.043        10.107         1.059         5.803
  WS02004412WS02004413       233.450       380.025        10.146         1.064         5.827
  WS02004410WS02004411       233.923       380.774        10.185         1.068         5.851
  WS02004409WS02004410       234.114       381.082        10.200         1.070         5.860
  WS02004407WS02004409       234.072       380.996        10.203         1.071         5.862
  WS02004406WS02004407       233.822       380.570        10.194         1.070         5.857
  WS02004405WS02004406       234.551       381.752        10.251         1.077         5.892
  WS02004404WS02004405       234.757       382.044        10.275         1.080         5.907
  WS02004403WS02004404       234.063       380.935        10.202         1.071         5.862
  WS02004402WS02004403       234.780       382.090        10.258         1.077         5.896
  WS02004139WS02001211      1252.368      2004.697       118.392        14.758        73.871
  WS02004138WS02004139      1260.031      2016.963       119.110        14.847        74.319
  WS02003067WS02003066       232.834       379.006        10.103         1.058         5.800
  WS02001213WS02003059      1281.587      2051.431       121.236        15.114        75.651
  WS02001212WS02001213      1289.746      2064.492       122.005        15.210        76.130
  WS02001211WS02001212      1294.618      2072.290       122.465        15.267        76.418
  WS02003072WS02003073      1610.470      2584.108       140.593        17.330        87.237
  WS02003069WS02003072      1616.798      2594.239       141.203        17.406        87.618
  WS02003060WS02003069      1620.238      2599.746       141.522        17.446        87.817
  WS02003059WS02003060      1276.983      2044.061       120.806        15.061        75.383
  HS02004901HS02004770         1.804         3.083         0.037         0.003         0.017
  HS02004876HS02004881         7.603        13.134         0.260         0.024         0.141
  HS02004870HS02004876         5.984        10.293         0.235         0.023         0.130
  HS02004842HS02004848         1.163         1.947         0.027         0.002         0.012
  HS02004837HS02004842         5.832         9.405         0.495         0.061         0.306
  HS02004830HS02004837        47.144        75.997         4.208         0.521         2.618
  HS02004824HS02004830        47.896        77.200         4.281         0.530         2.663
  HS02004817HS02004824        52.078        84.452         4.390         0.538         2.719
  HS02004770HS02004777         7.107        12.252         0.164         0.010         0.074
  HS02004799HS02004480        35.003        58.079         1.816         0.202         1.060
  HS02004792HS02004799        33.172        54.699         1.829         0.206         1.076
  HS02004788HS02004792        22.932        37.841         1.480         0.172         0.887
  HS02004785HS02004788         8.581        14.613         0.316         0.030         0.170
  HS02004777HS02004785         7.968        13.633         0.260         0.023         0.134
  HS02004480HS02004478        40.403        67.622         1.864         0.202         1.075
  HS02004479HS02004480         9.205        15.617         0.397         0.044         0.231
  HS02004862HS02004870         4.554         7.679         0.205         0.021         0.116
  HS02004848HS02004852         1.052         1.761         0.025         0.002         0.011
  HS02004856HS02004862         2.167         3.773         0.048         0.003         0.022
  HS02004852HS02004856         1.057         1.770         0.025         0.002         0.011
  HS02004802HS02004478        52.633        85.925         4.190         0.509         2.584
  HS02004478WS02006287        92.736       153.071         6.027         0.708         3.642
  HS02004817HS02004807        50.705        82.255         4.259         0.522         2.637
  HS02004807HS02004802        53.025        86.555         4.230         0.514         2.609
  YS02001759YS02001757        73.790       118.850         1.844         0.137         0.940
  YS02001762YS02001759        39.763        64.646         1.143         0.092         0.602
  YS02001765YS02001762        39.672        64.472         1.166         0.095         0.617
  YS02001770YS02001767        37.510        60.943         0.886         0.058         0.437
  YS02001774YS02001770         3.511         5.679         0.096         0.007         0.050
  YS02001779YS02001774         2.981         4.793         0.163         0.018         0.097
  YS02001649YS02001757       106.879       166.895         2.463         0.179         1.188
  YS02001767YS02001765        39.943        64.889         1.189         0.097         0.630
  YS02006561YS02001783       165.718       265.657         5.394         0.497         2.950
  YS02001783YS02001784       165.646       265.550         5.390         0.497         2.948
  YS02001784YS02001785       173.012       277.348         6.102         0.586         3.393
  YS02001788YS02001790       173.692       278.452         6.175         0.595         3.439
  YS02001790YS02001791       174.684       280.048         6.274         0.608         3.501
  YS02001791YS02001793       174.614       279.934         6.270         0.607         3.499
  YS02001910YS02001907        63.001       100.339         2.985         0.309         1.729
  YS02001786YS02001788       173.257       277.750         6.131         0.590         3.411
  YS02001915YS02001910        62.935       100.182         2.950         0.304         1.705
  YS02001918YS02001915        36.687        57.264         2.334         0.272         1.411
  YS02001923YS02001920        16.664        25.215         0.399         0.030         0.202
  YS02001926YS02001923        16.286        24.607         0.360         0.025         0.177
  YS02001929YS02001926        15.991        24.124         0.328         0.021         0.157
  YS02001920YS02001918        36.609        57.135         2.317         0.269         1.401
  YS02001629YS02163301        17.965        28.221         0.423         0.026         0.194
  YS02001619YS02001622        20.844        32.542         0.493         0.030         0.226
  YS02001622YS02001625        19.957        31.236         0.471         0.028         0.216
  YS02001625YS02001629        18.908        29.696         0.444         0.027         0.204
  YS02163301YS02001633        17.622        27.681         0.415         0.026         0.192
  YS02163601YS02164001        51.669        80.489         1.236         0.091         0.607
  YS02164001YS02001641        51.216        79.772         1.215         0.089         0.595
  YS02001641YS02001644        51.182        79.702         1.206         0.088         0.590
  YS02001647YS02001649        82.035       127.365         1.822         0.130         0.881
  YS02006553YS02006556       121.852       194.959         4.250         0.408         2.366
  YS02006556YS02006558       121.829       194.904         4.218         0.404         2.344
  YSB6556YSB1171               4.547         7.774         0.150         0.015         0.084
  YS02001907YS02006553       121.920       195.079         4.267         0.411         2.377
  YS02006558YS02006561       165.738       265.685         5.395         0.497         2.951
  YS02001633YS02163601        52.208        81.247         1.217         0.087         0.592
  YS02001644YS02001647        82.853       128.561         1.841         0.132         0.890
  YS02001745YS02001748        29.595        47.343         0.695         0.042         0.337
  YS02001748YS02001751        29.387        47.090         0.723         0.046         0.357
  YS02001751YS02001754        28.862        46.317         0.734         0.049         0.368
  YS02001754YS02001757        29.839        47.919         0.899         0.071         0.474
  YS02001882YS02001884         0.354         0.538         0.010         0.001         0.006
  YS02001884YS02001887         1.332         2.081         0.036         0.003         0.019
  YS02001890YS02001895        60.000        96.297         1.319         0.105         0.669
  YS02001895YS02001898        59.871        96.110         1.313         0.104         0.666
  YS02001898YS02001901        59.786        95.994         1.310         0.104         0.664
  YS02001901YS02001904        59.776        96.011         1.322         0.106         0.672
  YS02001904YS02001907        60.224        96.771         1.382         0.113         0.710
  YS02001887YS02001890        60.774        97.486         1.375         0.112         0.704
  YS02001652YS02001649        26.660        42.258         0.674         0.050         0.320
  YS02001655YS02001652        27.540        43.593         0.700         0.052         0.333
  YS02001658YS02001655        27.260        43.048         0.621         0.041         0.280
  YS02001661YS02001658        27.768        43.751         0.635         0.042         0.286
  YS02001664YS02001661        27.969        43.985         0.641         0.042         0.289
  YSB1154YSB6556               4.117         7.089         0.097         0.009         0.051
  YSB1174YSB1171               3.063         5.307         0.096         0.010         0.053
  YSB1171HS02004479            9.163        15.557         0.396         0.044         0.231
  HS02004881HS02006253         8.494        14.733         0.275         0.024         0.147
  YS02001793JiankangQianchi       175.448       281.285         6.306         0.611         3.520
  YS02001757CaochengTiaoxuchi       204.493       324.723         4.884         0.353         2.414
  WSF200WS02003060           232.802       378.961        10.103         1.059         5.800
  1                         1615.982      2592.935       141.168        17.403        87.598
  CC-Pump-1                   48.660        77.882         1.136         0.081         0.559
  CC-Pump-2                   18.264        29.238         0.426         0.031         0.210
  JK-Pump-1                   71.416       114.725         2.545         0.246         1.419
  JK-Pump-2                   33.807        54.618         1.123         0.105         0.618
  XR-Pump-1                  349.149       558.884        33.009         4.115        20.596
  XR-Pump-2                  326.829       523.174        30.883         3.849        19.269
  XR-Pump-3                  293.965       470.556        27.792         3.465        17.341
  XR-Pump-4                  293.965       470.556        27.792         3.465        17.341
  

  Analysis begun on:  Tue Jun 15 20:32:16 2021
  Analysis ended on:  Tue Jun 15 20:32:17 2021
  Total elapsed time: 00:00:01