
  EPA STORM WATER MANAGEMENT MODEL - VERSION 5.1 (Build 5.3.0.dev0)
  --------------------------------------------------------------

  WARNING 09: time series interval greater than recording interval for Rain Gage RG1
  WARNING 09: time series interval greater than recording interval for Rain Gage RG2
  WARNING 09: time series interval greater than recording interval for Rain Gage RG3
  WARNING 09: time series interval greater than recording interval for Rain Gage RG4
  
  *********************************************************
  NOTE: The summary statistics displayed in this report are
  based on results found at every computational time step,  
  not just on results from each reporting time step.
  *********************************************************
  
  ****************
  Analysis Options
  ****************
  Flow Units ............... CMS
  Process Models:
    Rainfall/Runoff ........ YES
    RDII ................... NO
    Snowmelt ............... NO
    Groundwater ............ NO
    Flow Routing ........... YES
    Ponding Allowed ........ YES
    Water Quality .......... NO
  Infiltration Method ...... HORTON
  Flow Routing Method ...... DYNWAVE
  Surcharge Method ......... EXTRAN
  Starting Date ............ 08/28/2015 00:00:00
  Ending Date .............. 08/28/2015 23:50:00
  Antecedent Dry Days ...... 0.0
  Report Time Step ......... 00:01:00
  Wet Time Step ............ 00:01:00
  Dry Time Step ............ 00:01:00
  Routing Time Step ........ 5.00 sec
  Variable Time Step ....... YES
  Maximum Trials ........... 8
  Number of Threads ........ 1
  Head Tolerance ........... 0.001500 m
  
  
  **************************        Volume         Depth
  Runoff Quantity Continuity     hectare-m            mm
  **************************     ---------       -------
  Total Precipitation ......         2.151        11.935
  Evaporation Loss .........         0.000         0.000
  Infiltration Loss ........         0.000         0.000
  Surface Runoff ...........         2.139        11.870
  Final Storage ............         0.013         0.071
  Continuity Error (%) .....        -0.046
  
  
  **************************        Volume        Volume
  Flow Routing Continuity        hectare-m      10^6 ltr
  **************************     ---------     ---------
  Dry Weather Inflow .......         0.759         7.586
  Wet Weather Inflow .......         2.139        21.389
  Groundwater Inflow .......         0.000         0.000
  RDII Inflow ..............         0.000         0.000
  External Inflow ..........         0.000         0.000
  External Outflow .........         1.996        19.962
  Flooding Loss ............         0.695         6.945
  Evaporation Loss .........         0.000         0.000
  Exfiltration Loss ........         0.000         0.000
  Initial Stored Volume ....         0.000         0.000
  Final Stored Volume ......         0.196         1.964
  Continuity Error (%) .....         0.357
  
  
  *************************
  Highest Continuity Errors
  *************************
  Node T5 (5.73%)
  Node T3 (2.67%)
  Node T1 (1.35%)
  
  
  ***************************
  Time-Step Critical Elements
  ***************************
  None
  
  
  ********************************
  Highest Flow Instability Indexes
  ********************************
  Link C15 (1)
  
  
  *************************
  Routing Time Step Summary
  *************************
  Minimum Time Step           :     3.50 sec
  Average Time Step           :     5.00 sec
  Maximum Time Step           :     5.00 sec
  Percent in Steady State     :     0.00
  Average Iterations per Step :     2.00
  Percent Not Converging      :     0.00
  
  
  ***************************
  Subcatchment Runoff Summary
  ***************************
  
  ------------------------------------------------------------------------------------------------------------------------------
                            Total      Total      Total      Total     Imperv       Perv      Total       Total     Peak  Runoff
                           Precip      Runon       Evap      Infil     Runoff     Runoff     Runoff      Runoff   Runoff   Coeff
  Subcatchment                 mm         mm         mm         mm         mm         mm         mm    10^6 ltr      CMS
  ------------------------------------------------------------------------------------------------------------------------------
  SC01                      12.33       0.00       0.00       0.00      12.28       0.00      12.28        4.05     0.23   0.996
  SC02                      12.81       0.00       0.00       0.00      12.76       0.00      12.76        2.90     0.22   0.996
  SC03                      10.99       0.00       0.00       0.00      10.95       0.00      10.95        1.97     0.17   0.996
  SC04                      12.81       0.00       0.00       0.00      12.72       0.00      12.72        0.88     0.05   0.993
  SC05                      12.33       0.00       0.00       0.00      12.27       0.00      12.27        1.91     0.10   0.995
  SC06                      11.67       0.00       0.00       0.00      11.58       0.00      11.58        3.77     0.18   0.992
  SC07                      12.81       0.00       0.00       0.00      12.72       0.00      12.72        0.60     0.03   0.993
  SC08                      10.99       0.00       0.00       0.00      10.93       0.00      10.93        3.06     0.23   0.994
  SC09                      11.67       0.00       0.00       0.00      11.60       0.00      11.60        0.80     0.05   0.994
  SC010                     12.33       0.00       0.00       0.00      12.27       0.00      12.27        1.44     0.07   0.995
  
  
  ******************
  Node Depth Summary
  ******************
  
  ---------------------------------------------------------------------------------
                                 Average  Maximum  Maximum  Time of Max    Reported
                                   Depth    Depth      HGL   Occurrence   Max Depth
  Node                 Type       Meters   Meters   Meters  days hr:min      Meters
  ---------------------------------------------------------------------------------
  J1                   JUNCTION     0.06     0.11    34.11     0  01:52        0.11
  J3                   JUNCTION     0.13     0.16    18.16     0  10:38        0.16
  CSO7                 JUNCTION     0.08     0.14    34.14     0  04:26        0.14
  J5                   JUNCTION     0.05     0.10    32.10     0  04:32        0.10
  CSO9                 JUNCTION     0.08     0.18    40.18     0  01:51        0.18
  J8                   JUNCTION     0.09     0.16    36.16     0  04:57        0.16
  CSO8                 JUNCTION     0.09     0.30    32.30     0  04:56        0.29
  J10                  JUNCTION     0.07     0.18    29.18     0  04:58        0.18
  J13                  JUNCTION     0.05     0.12    29.12     0  01:47        0.12
  J15                  JUNCTION     0.19     0.25    15.25     0  08:24        0.25
  J16                  JUNCTION     0.06     0.12    30.12     0  01:52        0.12
  CSO10                JUNCTION     0.10     0.21    30.21     0  04:36        0.21
  J12                  JUNCTION     0.35     0.98    26.98     0  11:06        0.98
  J4                   JUNCTION     0.10     0.17    33.17     0  04:33        0.17
  J6                   JUNCTION     0.07     0.09    25.09     0  05:17        0.09
  J2                   JUNCTION     0.07     0.08    25.08     0  11:26        0.08
  J19                  JUNCTION     0.15     0.17     8.17     0  04:32        0.17
  J9                   JUNCTION     0.10     0.15    29.15     0  08:58        0.15
  J14                  JUNCTION     0.16     0.19    20.19     0  11:11        0.19
  J17                  JUNCTION     0.08     0.12    20.12     0  05:08        0.12
  J7                   JUNCTION     0.07     0.13    39.13     0  01:54        0.13
  J11                  JUNCTION     0.07     0.20    31.20     0  04:58        0.20
  J18                  JUNCTION     0.05     0.09    29.09     0  04:43        0.09
  Out_to_WWTP          OUTFALL      0.15     0.17     6.17     0  17:22        0.17
  T5                   STORAGE      3.20     5.00    32.00     0  10:43        5.00
  T4                   STORAGE      0.77     1.77    28.77     0  05:16        1.77
  T6                   STORAGE      1.46     3.36    34.36     0  08:54        3.36
  T3                   STORAGE      3.14     4.98    26.98     0  11:10        4.98
  T2                   STORAGE      0.75     1.78    22.78     0  05:07        1.78
  T1                   STORAGE      4.06     5.00    15.00     0  04:31        5.00
  
  
  *******************
  Node Inflow Summary
  *******************
  
  -------------------------------------------------------------------------------------------------
                                  Maximum  Maximum                  Lateral       Total        Flow
                                  Lateral    Total  Time of Max      Inflow      Inflow     Balance
                                   Inflow   Inflow   Occurrence      Volume      Volume       Error
  Node                 Type           CMS      CMS  days hr:min    10^6 ltr    10^6 ltr     Percent
  -------------------------------------------------------------------------------------------------
  J1                   JUNCTION     0.107    0.107     0  01:51        3.01        3.01      -0.074
  J3                   JUNCTION     0.000    0.271     0  10:37           0        16.9       0.164
  CSO7                 JUNCTION     0.036    0.036     0  04:26        1.17        1.17       0.009
  J5                   JUNCTION     0.049    0.081     0  04:31        1.13         2.3      -0.029
  CSO9                 JUNCTION     0.047    0.047     0  01:51        1.18        1.18       0.006
  J8                   JUNCTION     0.191    0.229     0  04:56         5.6        6.78      -0.038
  CSO8                 JUNCTION     0.225    0.225     0  04:56        3.51        3.51      -0.006
  J10                  JUNCTION     0.177    0.362     0  04:56        2.72        6.23      -0.063
  J13                  JUNCTION     0.217    0.217     0  01:46        3.81        3.81      -0.134
  J15                  JUNCTION     0.000    0.533     0  08:22           0        27.5       0.195
  J16                  JUNCTION     0.234    0.234     0  01:51        5.13        5.13      -0.051
  CSO10                JUNCTION     0.071    0.071     0  04:36        1.71        1.71       0.001
  J12                  JUNCTION     0.000    0.483     0  04:58           0          13      -0.020
  J4                   JUNCTION     0.000    0.035     0  04:26           0        1.17       0.098
  J6                   JUNCTION     0.000    0.047     0  05:16           0        2.29       0.006
  J2                   JUNCTION     0.000    0.039     0  10:43           0        2.55       0.152
  J19                  JUNCTION     0.000    0.271     0  04:31           0          20       0.046
  J9                   JUNCTION     0.000    0.143     0  08:54           0        6.78      -0.014
  J14                  JUNCTION     0.000    0.189     0  11:10           0          12       0.051
  J17                  JUNCTION     0.000    0.083     0  05:07           0        3.81       0.012
  J7                   JUNCTION     0.000    0.046     0  01:52           0        1.18       0.078
  J11                  JUNCTION     0.000    0.223     0  04:56           0        3.51       0.019
  J18                  JUNCTION     0.000    0.068     0  04:37           0        1.71      -0.045
  Out_to_WWTP          OUTFALL      0.000    0.271     0  04:33           0          20       0.000
  T5                   STORAGE      0.000    0.099     0  01:52           0        3.01       6.075
  T4                   STORAGE      0.000    0.079     0  04:32           0         2.3       0.056
  T6                   STORAGE      0.000    0.221     0  04:57           0        6.79       0.075
  T3                   STORAGE      0.000    0.472     0  05:00           0          13       2.743
  T2                   STORAGE      0.000    0.203     0  01:47           0        3.82       0.148
  T1                   STORAGE      0.000    0.527     0  08:24           0        27.5       1.369
  
  
  **********************
  Node Surcharge Summary
  **********************
  
  No nodes were surcharged.
  
  
  *********************
  Node Flooding Summary
  *********************
  
  Flooding refers to all water that overflows a node, whether it ponds or not.
  --------------------------------------------------------------------------
                                                             Total   Maximum
                                 Maximum   Time of Max       Flood    Ponded
                        Hours       Rate    Occurrence      Volume     Depth
  Node                 Flooded       CMS   days hr:min    10^6 ltr    Meters
  --------------------------------------------------------------------------
  T5                      1.87     0.043      0  13:02       0.124     0.000
  T1                     12.40     0.256      0  08:24       6.821     0.000
  
  
  **********************
  Storage Volume Summary
  **********************
  
  --------------------------------------------------------------------------------------------------
                         Average     Avg  Evap Exfil       Maximum     Max    Time of Max    Maximum
                          Volume    Pcnt  Pcnt  Pcnt        Volume    Pcnt     Occurrence    Outflow
  Storage Unit           1000 m3    Full  Loss  Loss       1000 m3    Full    days hr:min        CMS
  --------------------------------------------------------------------------------------------------
  T5                       0.320      64     0     0         0.500     100       0  10:43      0.039
  T4                       0.077      15     0     0         0.177      35       0  05:16      0.047
  T6                       0.175      29     0     0         0.403      67       0  08:54      0.143
  T3                       1.632      63     0     0         2.589     100       0  11:10      0.189
  T2                       0.149      15     0     0         0.356      36       0  05:07      0.083
  T1                       0.568      81     0     0         0.700     100       0  04:31      0.271
  
  
  ***********************
  Outfall Loading Summary
  ***********************
  
  -----------------------------------------------------------
                         Flow       Avg       Max       Total
                         Freq      Flow      Flow      Volume
  Outfall Node           Pcnt       CMS       CMS    10^6 ltr
  -----------------------------------------------------------
  Out_to_WWTP           99.43     0.234     0.271      19.962
  -----------------------------------------------------------
  System                99.43     0.234     0.271      19.962
  
  
  ********************
  Link Flow Summary
  ********************
  
  -----------------------------------------------------------------------------
                                 Maximum  Time of Max   Maximum    Max/    Max/
                                  |Flow|   Occurrence   |Veloc|    Full    Full
  Link                 Type          CMS  days hr:min     m/sec    Flow   Depth
  -----------------------------------------------------------------------------
  C1                   CONDUIT     0.039     0  11:26      0.75    0.01    0.12
  C6                   CONDUIT     0.034     0  04:33      1.13    0.54    0.44
  C2                   CONDUIT     0.047     0  05:17      1.18    0.05    0.21
  C9                   CONDUIT     0.042     0  01:54      0.97    0.14    0.28
  C16                  CONDUIT     0.203     0  04:58      1.35    0.02    0.09
  C3                   CONDUIT     0.189     0  11:11      2.06    0.07    0.17
  C19                  CONDUIT     0.083     0  05:08      0.99    0.03    0.18
  C11                  CONDUIT     0.271     0  10:38      1.87    0.01    0.10
  C20                  CONDUIT     0.216     0  01:52      2.00    0.01    0.09
  C22                  CONDUIT     0.065     0  04:43      1.01    0.03    0.21
  C12                  CONDUIT     0.143     0  08:58      1.32    0.01    0.28
  C17                  CONDUIT     0.345     0  04:58      2.05    0.02    0.26
  C10                  CONDUIT     0.221     0  04:57      1.39    0.02    0.55
  C13                  CONDUIT     0.472     0  05:00      2.04    0.03    0.74
  C18                  CONDUIT     0.203     0  01:47      1.93    0.01    0.47
  C23                  CONDUIT     0.527     0  08:24      1.45    0.06    0.58
  C4                   CONDUIT     0.099     0  01:52      1.37    0.02    0.55
  C7                   CONDUIT     0.079     0  04:32      1.47    0.02    0.55
  C14                  CONDUIT     0.271     0  04:33      2.08    0.02    0.09
  C5                   CONDUIT     0.035     0  04:26      1.09    0.60    0.61
  C8                   CONDUIT     0.046     0  01:52      1.23    0.57    0.48
  C15                  CONDUIT     0.223     0  04:56      2.54    0.71    0.54
  C21                  CONDUIT     0.068     0  04:37      1.48    0.39    0.34
  V4                   ORIFICE     0.047     0  05:16                      1.00
  V5                   ORIFICE     0.039     0  10:43                      1.00
  V1                   ORIFICE     0.271     0  04:31                      1.00
  V6                   ORIFICE     0.143     0  08:54                      1.00
  V3                   ORIFICE     0.189     0  11:10                      1.00
  V2                   ORIFICE     0.083     0  05:07                      1.00
  
  
  ***************************
  Flow Classification Summary
  ***************************
  
  -------------------------------------------------------------------------------------
                      Adjusted    ---------- Fraction of Time in Flow Class ---------- 
                       /Actual         Up    Down  Sub   Sup   Up    Down  Norm  Inlet 
  Conduit               Length    Dry  Dry   Dry   Crit  Crit  Crit  Crit  Ltd   Ctrl  
  -------------------------------------------------------------------------------------
  C1                      1.00   0.00  0.00  0.00  0.93  0.07  0.00  0.00  0.97  0.00
  C6                      1.00   0.00  0.00  0.00  0.01  0.99  0.00  0.00  0.00  0.00
  C2                      1.00   0.00  0.00  0.00  0.46  0.54  0.00  0.00  0.97  0.00
  C9                      1.00   0.00  0.00  0.00  1.00  0.00  0.00  0.00  1.00  0.00
  C16                     1.00   0.00  0.05  0.00  0.53  0.42  0.00  0.00  0.40  0.00
  C3                      1.00   0.00  0.00  0.00  0.04  0.96  0.00  0.00  0.06  0.00
  C19                     1.00   0.00  0.00  0.00  1.00  0.00  0.00  0.00  1.00  0.00
  C11                     1.00   0.00  0.00  0.00  0.08  0.91  0.00  0.00  1.00  0.00
  C20                     1.00   0.00  0.00  0.00  0.78  0.22  0.00  0.00  0.99  0.00
  C22                     1.00   0.00  0.00  0.00  0.98  0.02  0.00  0.00  1.00  0.00
  C12                     1.00   0.00  0.00  0.00  0.61  0.39  0.00  0.00  0.97  0.00
  C17                     1.00   0.00  0.00  0.00  0.74  0.26  0.00  0.00  0.98  0.00
  C10                     1.00   0.00  0.00  0.00  0.87  0.13  0.00  0.00  0.96  0.00
  C13                     1.00   0.00  0.00  0.00  0.92  0.08  0.00  0.00  0.51  0.00
  C18                     1.00   0.00  0.00  0.00  0.71  0.29  0.00  0.00  0.97  0.00
  C23                     1.00   0.00  0.00  0.00  0.93  0.07  0.00  0.00  0.95  0.00
  C4                      1.00   0.00  0.00  0.00  0.93  0.07  0.00  0.00  0.97  0.00
  C7                      1.00   0.00  0.00  0.00  0.86  0.14  0.00  0.00  0.92  0.00
  C14                     1.00   0.00  0.00  0.00  0.00  1.00  0.00  0.00  0.19  0.00
  C5                      1.00   0.00  0.00  0.00  0.93  0.07  0.00  0.00  0.98  0.00
  C8                      1.00   0.00  0.00  0.00  0.12  0.88  0.00  0.00  0.01  0.00
  C15                     1.00   0.05  0.00  0.00  0.02  0.94  0.00  0.00  0.02  0.00
  C21                     1.00   0.00  0.00  0.00  0.00  1.00  0.00  0.00  0.00  0.00
  
  
  *************************
  Conduit Surcharge Summary
  *************************
  
  ----------------------------------------------------------------------------
                                                           Hours        Hours 
                         --------- Hours Full --------   Above Full   Capacity
  Conduit                Both Ends  Upstream  Dnstream   Normal Flow   Limited
  ----------------------------------------------------------------------------
  C10                         0.01      0.01     10.60      0.01         0.01
  C13                         0.01      0.01     17.07      0.01         0.01
  C23                         0.01      0.01     21.54      0.01         0.01
  C4                          0.01      0.01     21.37      0.01         0.01
  C7                          0.01      0.01      9.69      0.01         0.01
  

  Analysis begun on:  Mon Sep 20 12:19:29 2021
  Analysis ended on:  Mon Sep 20 12:19:30 2021
  Total elapsed time: 00:00:01