
  EPA STORM WATER MANAGEMENT MODEL - VERSION 5.1 (Build 5.3.0.dev0)
  --------------------------------------------------------------

  
  *********************************************************
  NOTE: The summary statistics displayed in this report are
  based on results found at every computational time step,  
  not just on results from each reporting time step.
  *********************************************************
  
  ****************
  Analysis Options
  ****************
  Flow Units ............... CMS
  Process Models:
    Rainfall/Runoff ........ YES
    RDII ................... NO
    Snowmelt ............... NO
    Groundwater ............ NO
    Flow Routing ........... YES
    Ponding Allowed ........ YES
    Water Quality .......... NO
  Infiltration Method ...... HORTON
  Flow Routing Method ...... DYNWAVE
  Surcharge Method ......... EXTRAN
  Starting Date ............ 08/28/2015 08:00:00
  Ending Date .............. 08/28/2015 15:50:00
  Antecedent Dry Days ...... 0.0
  Report Time Step ......... 00:01:00
  Wet Time Step ............ 00:01:00
  Dry Time Step ............ 00:01:00
  Routing Time Step ........ 5.00 sec
  Variable Time Step ....... YES
  Maximum Trials ........... 8
  Number of Threads ........ 1
  Head Tolerance ........... 0.001500 m
  
  
  **************************        Volume         Depth
  Runoff Quantity Continuity     hectare-m            mm
  **************************     ---------       -------
  Total Precipitation ......         0.680         3.775
  Evaporation Loss .........         0.000         0.000
  Infiltration Loss ........         0.000         0.000
  Surface Runoff ...........         0.658         3.650
  Final Storage ............         0.023         0.126
  Continuity Error (%) .....        -0.008
  
  
  **************************        Volume        Volume
  Flow Routing Continuity        hectare-m      10^6 ltr
  **************************     ---------     ---------
  Dry Weather Inflow .......         0.396         3.955
  Wet Weather Inflow .......         0.658         6.577
  Groundwater Inflow .......         0.000         0.000
  RDII Inflow ..............         0.000         0.000
  External Inflow ..........         0.000         0.000
  External Outflow .........         0.421         4.206
  Flooding Loss ............         0.001         0.007
  Evaporation Loss .........         0.000         0.000
  Exfiltration Loss ........         0.000         0.000
  Initial Stored Volume ....         0.000         0.000
  Final Stored Volume ......         0.527         5.267
  Continuity Error (%) .....         9.994
  
  
  *************************
  Highest Continuity Errors
  *************************
  Node T2 (31.74%)
  Node T4 (28.85%)
  Node T6 (27.33%)
  Node T3 (25.10%)
  Node T5 (22.21%)
  
  
  ***************************
  Time-Step Critical Elements
  ***************************
  None
  
  
  ********************************
  Highest Flow Instability Indexes
  ********************************
  All links are stable.
  
  
  *************************
  Routing Time Step Summary
  *************************
  Minimum Time Step           :     4.50 sec
  Average Time Step           :     5.00 sec
  Maximum Time Step           :     5.00 sec
  Percent in Steady State     :     0.00
  Average Iterations per Step :     2.00
  Percent Not Converging      :     0.00
  
  
  ***************************
  Subcatchment Runoff Summary
  ***************************
  
  ------------------------------------------------------------------------------------------------------------------------------
                            Total      Total      Total      Total     Imperv       Perv      Total       Total     Peak  Runoff
                           Precip      Runon       Evap      Infil     Runoff     Runoff     Runoff      Runoff   Runoff   Coeff
  Subcatchment                 mm         mm         mm         mm         mm         mm         mm    10^6 ltr      CMS
  ------------------------------------------------------------------------------------------------------------------------------
  SC01                       3.78       0.00       0.00       0.00       3.69       0.00       3.69        1.22     0.27   0.978
  SC02                       3.78       0.00       0.00       0.00       3.69       0.00       3.69        0.84     0.18   0.976
  SC03                       3.78       0.00       0.00       0.00       3.71       0.00       3.71        0.67     0.15   0.982
  SC04                       3.78       0.00       0.00       0.00       3.59       0.00       3.59        0.25     0.05   0.951
  SC05                       3.78       0.00       0.00       0.00       3.68       0.00       3.68        0.57     0.12   0.976
  SC06                       3.78       0.00       0.00       0.00       3.54       0.00       3.54        1.15     0.21   0.939
  SC07                       3.78       0.00       0.00       0.00       3.59       0.00       3.59        0.17     0.03   0.951
  SC08                       3.78       0.00       0.00       0.00       3.66       0.00       3.66        1.03     0.21   0.970
  SC09                       3.78       0.00       0.00       0.00       3.64       0.00       3.64        0.25     0.05   0.964
  SC010                      3.78       0.00       0.00       0.00       3.67       0.00       3.67        0.43     0.09   0.971
  
  
  ******************
  Node Depth Summary
  ******************
  
  ---------------------------------------------------------------------------------
                                 Average  Maximum  Maximum  Time of Max    Reported
                                   Depth    Depth      HGL   Occurrence   Max Depth
  Node                 Type       Meters   Meters   Meters  days hr:min      Meters
  ---------------------------------------------------------------------------------
  J1                   JUNCTION     0.07     0.13    34.13     0  03:01        0.13
  J3                   JUNCTION     0.08     0.11    18.11     0  03:53        0.11
  CSO7                 JUNCTION     0.09     0.17    34.17     0  03:01        0.17
  J5                   JUNCTION     0.06     0.10    32.10     0  03:02        0.10
  CSO9                 JUNCTION     0.09     0.21    40.21     0  03:01        0.21
  J8                   JUNCTION     0.10     0.18    36.18     0  03:02        0.18
  CSO8                 JUNCTION     0.11     0.29    32.29     0  03:01        0.29
  J10                  JUNCTION     0.08     0.19    29.19     0  03:01        0.19
  J13                  JUNCTION     0.06     0.12    29.12     0  03:01        0.12
  J15                  JUNCTION     0.13     0.23    15.23     0  03:03        0.23
  J16                  JUNCTION     0.06     0.13    30.13     0  03:01        0.13
  CSO10                JUNCTION     0.10     0.25    30.25     0  03:01        0.25
  J12                  JUNCTION     0.12     0.22    26.22     0  03:03        0.22
  J4                   JUNCTION     0.11     0.20    33.20     0  03:03        0.20
  J6                   JUNCTION     0.04     0.06    25.06     0  06:15        0.06
  J2                   JUNCTION     0.06     0.07    25.07     0  04:42        0.07
  J19                  JUNCTION     0.12     0.16     8.16     0  03:35        0.16
  J9                   JUNCTION     0.08     0.11    29.11     0  05:13        0.11
  J14                  JUNCTION     0.08     0.12    20.12     0  04:35        0.12
  J17                  JUNCTION     0.05     0.07    20.07     0  04:21        0.07
  J7                   JUNCTION     0.07     0.15    39.15     0  03:02        0.15
  J11                  JUNCTION     0.08     0.20    31.20     0  03:02        0.20
  J18                  JUNCTION     0.05     0.11    29.11     0  03:02        0.11
  Out_to_WWTP          OUTFALL      0.12     0.16     6.16     0  03:35        0.16
  T5                   STORAGE      1.94     2.91    29.91     0  04:40        2.91
  T4                   STORAGE      2.06     3.29    30.29     0  06:13        3.29
  T6                   STORAGE      3.00     5.00    36.00     0  04:53        5.00
  T3                   STORAGE      1.75     3.19    25.19     0  07:50        3.19
  T2                   STORAGE      1.41     2.07    23.07     0  06:03        2.07
  T1                   STORAGE      1.90     3.51    13.51     0  03:35        3.51
  
  
  *******************
  Node Inflow Summary
  *******************
  
  -------------------------------------------------------------------------------------------------
                                  Maximum  Maximum                  Lateral       Total        Flow
                                  Lateral    Total  Time of Max      Inflow      Inflow     Balance
                                   Inflow   Inflow   Occurrence      Volume      Volume       Error
  Node                 Type           CMS      CMS  days hr:min    10^6 ltr    10^6 ltr     Percent
  -------------------------------------------------------------------------------------------------
  J1                   JUNCTION     0.147    0.147     0  03:01        1.14        1.14       0.061
  J3                   JUNCTION     0.000    0.112     0  03:51           0        1.98       1.158
  CSO7                 JUNCTION     0.044    0.044     0  03:01       0.461       0.461       0.098
  J5                   JUNCTION     0.053    0.094     0  03:01       0.375       0.832       0.212
  CSO9                 JUNCTION     0.059    0.059     0  03:01       0.447       0.447       0.098
  J8                   JUNCTION     0.248    0.303     0  03:01        2.09        2.54       0.215
  CSO8                 JUNCTION     0.224    0.224     0  03:01        1.32        1.32       0.041
  J10                  JUNCTION     0.167    0.382     0  03:01        1.05        2.36       0.236
  J13                  JUNCTION     0.200    0.200     0  03:01        1.31        1.31      -0.217
  J15                  JUNCTION     0.000    0.474     0  03:01           0        4.78       1.147
  J16                  JUNCTION     0.289    0.289     0  03:01        1.77        1.77       0.040
  CSO10                JUNCTION     0.096    0.096     0  03:01        0.57        0.57       0.075
  J12                  JUNCTION     0.000    0.430     0  03:01           0        3.69       0.751
  J4                   JUNCTION     0.000    0.044     0  03:01           0       0.461       0.817
  J6                   JUNCTION     0.000    0.016     0  06:13           0       0.269       1.074
  J2                   JUNCTION     0.000    0.030     0  04:40           0       0.638       0.660
  J19                  JUNCTION     0.000    0.226     0  03:35           0        4.21       0.197
  J9                   JUNCTION     0.000    0.079     0  05:00           0        1.35       1.243
  J14                  JUNCTION     0.000    0.072     0  04:38           0        1.08       0.332
  J17                  JUNCTION     0.000    0.031     0  04:19           0        0.49       0.837
  J7                   JUNCTION     0.000    0.058     0  03:01           0       0.447       0.722
  J11                  JUNCTION     0.000    0.223     0  03:01           0        1.32       0.444
  J18                  JUNCTION     0.000    0.095     0  03:01           0       0.569       0.200
  Out_to_WWTP          OUTFALL      0.000    0.226     0  03:35           0        4.21       0.000
  T5                   STORAGE      0.000    0.145     0  03:01           0        1.14      28.558
  T4                   STORAGE      0.000    0.092     0  03:02           0        0.83      40.547
  T6                   STORAGE      0.000    0.297     0  03:02           0        2.53      37.606
  T3                   STORAGE      0.000    0.420     0  03:03           0        3.66      33.512
  T2                   STORAGE      0.000    0.198     0  03:01           0        1.31      46.503
  T1                   STORAGE      0.000    0.457     0  03:03           0        4.73       6.589
  
  
  **********************
  Node Surcharge Summary
  **********************
  
  No nodes were surcharged.
  
  
  *********************
  Node Flooding Summary
  *********************
  
  Flooding refers to all water that overflows a node, whether it ponds or not.
  --------------------------------------------------------------------------
                                                             Total   Maximum
                                 Maximum   Time of Max       Flood    Ponded
                        Hours       Rate    Occurrence      Volume     Depth
  Node                 Flooded       CMS   days hr:min    10^6 ltr    Meters
  --------------------------------------------------------------------------
  T6                      0.11     0.035      0  04:53       0.007     0.000
  
  
  **********************
  Storage Volume Summary
  **********************
  
  --------------------------------------------------------------------------------------------------
                         Average     Avg  Evap Exfil       Maximum     Max    Time of Max    Maximum
                          Volume    Pcnt  Pcnt  Pcnt        Volume    Pcnt     Occurrence    Outflow
  Storage Unit           1000 m3    Full  Loss  Loss       1000 m3    Full    days hr:min        CMS
  --------------------------------------------------------------------------------------------------
  T5                       0.194      39     0     0         0.291      58       0  04:40      0.030
  T4                       0.206      41     0     0         0.329      66       0  06:13      0.016
  T6                       0.360      60     0     0         0.600     100       0  04:53      0.079
  T3                       0.912      35     0     0         1.660      64       0  07:50      0.072
  T2                       0.281      28     0     0         0.413      41       0  06:03      0.031
  T1                       0.267      38     0     0         0.491      70       0  03:35      0.226
  
  
  ***********************
  Outfall Loading Summary
  ***********************
  
  -----------------------------------------------------------
                         Flow       Avg       Max       Total
                         Freq      Flow      Flow      Volume
  Outfall Node           Pcnt       CMS       CMS    10^6 ltr
  -----------------------------------------------------------
  Out_to_WWTP           99.01     0.151     0.226       4.206
  -----------------------------------------------------------
  System                99.01     0.151     0.226       4.206
  
  
  ********************
  Link Flow Summary
  ********************
  
  -----------------------------------------------------------------------------
                                 Maximum  Time of Max   Maximum    Max/    Max/
                                  |Flow|   Occurrence   |Veloc|    Full    Full
  Link                 Type          CMS  days hr:min     m/sec    Flow   Depth
  -----------------------------------------------------------------------------
  C1                   CONDUIT     0.030     0  04:42      0.99    0.01    0.09
  C6                   CONDUIT     0.042     0  03:03      1.20    0.67    0.50
  C2                   CONDUIT     0.016     0  06:15      0.78    0.02    0.13
  C9                   CONDUIT     0.056     0  03:02      1.00    0.19    0.33
  C16                  CONDUIT     0.217     0  03:02      1.38    0.02    0.10
  C3                   CONDUIT     0.072     0  04:38      1.51    0.03    0.11
  C19                  CONDUIT     0.031     0  04:22      0.65    0.01    0.15
  C11                  CONDUIT     0.112     0  03:53      1.32    0.01    0.08
  C20                  CONDUIT     0.285     0  03:01      2.02    0.01    0.09
  C22                  CONDUIT     0.093     0  03:02      1.19    0.04    0.21
  C12                  CONDUIT     0.079     0  05:13      1.12    0.01    0.08
  C17                  CONDUIT     0.374     0  03:01      2.26    0.02    0.10
  C10                  CONDUIT     0.297     0  03:02      1.66    0.03    0.56
  C13                  CONDUIT     0.420     0  03:03      1.45    0.02    0.54
  C18                  CONDUIT     0.198     0  03:01      1.72    0.01    0.51
  C23                  CONDUIT     0.457     0  03:03      1.25    0.05    0.58
  C4                   CONDUIT     0.145     0  03:01      1.98    0.04    0.56
  C7                   CONDUIT     0.092     0  03:02      1.43    0.02    0.55
  C14                  CONDUIT     0.226     0  03:35      1.97    0.01    0.08
  C5                   CONDUIT     0.044     0  03:01      1.22    0.75    0.70
  C8                   CONDUIT     0.058     0  03:01      1.26    0.73    0.56
  C15                  CONDUIT     0.223     0  03:01      2.48    0.71    0.55
  C21                  CONDUIT     0.095     0  03:01      1.60    0.54    0.41
  V4                   ORIFICE     0.016     0  06:13                      0.25
  V5                   ORIFICE     0.030     0  04:40                      1.00
  V1                   ORIFICE     0.226     0  03:35                      1.00
  V6                   ORIFICE     0.079     0  05:00                      0.45
  V3                   ORIFICE     0.072     0  04:38                      0.55
  V2                   ORIFICE     0.031     0  04:19                      0.35
  
  
  ***************************
  Flow Classification Summary
  ***************************
  
  -------------------------------------------------------------------------------------
                      Adjusted    ---------- Fraction of Time in Flow Class ---------- 
                       /Actual         Up    Down  Sub   Sup   Up    Down  Norm  Inlet 
  Conduit               Length    Dry  Dry   Dry   Crit  Crit  Crit  Crit  Ltd   Ctrl  
  -------------------------------------------------------------------------------------
  C1                      1.00   0.00  0.00  0.00  0.00  1.00  0.00  0.00  0.93  0.00
  C6                      1.00   0.00  0.00  0.00  0.01  0.99  0.00  0.00  0.00  0.00
  C2                      1.00   0.00  0.00  0.00  0.58  0.41  0.00  0.00  0.97  0.00
  C9                      1.00   0.00  0.00  0.00  1.00  0.00  0.00  0.00  1.00  0.00
  C16                     1.00   0.00  0.00  0.00  0.61  0.39  0.00  0.00  0.51  0.00
  C3                      1.00   0.00  0.00  0.00  0.04  0.95  0.00  0.00  0.57  0.00
  C19                     1.00   0.00  0.00  0.00  1.00  0.00  0.00  0.00  1.00  0.00
  C11                     1.00   0.00  0.00  0.00  0.37  0.63  0.00  0.00  1.00  0.00
  C20                     1.00   0.00  0.00  0.00  0.53  0.47  0.00  0.00  0.98  0.00
  C22                     1.00   0.00  0.00  0.00  0.83  0.17  0.00  0.00  1.00  0.00
  C12                     1.00   0.00  0.00  0.00  0.62  0.37  0.00  0.00  0.89  0.00
  C17                     1.00   0.00  0.00  0.00  0.35  0.65  0.00  0.00  0.97  0.00
  C10                     1.00   0.00  0.00  0.00  0.96  0.04  0.00  0.00  0.97  0.00
  C13                     1.00   0.00  0.00  0.00  0.88  0.12  0.00  0.00  0.91  0.00
  C18                     1.00   0.00  0.00  0.00  0.94  0.06  0.00  0.00  0.97  0.00
  C23                     1.00   0.00  0.00  0.00  0.87  0.13  0.00  0.00  0.94  0.00
  C4                      1.00   0.00  0.00  0.00  0.96  0.04  0.00  0.00  0.98  0.00
  C7                      1.00   0.00  0.00  0.00  0.95  0.05  0.00  0.00  0.97  0.00
  C14                     1.00   0.00  0.00  0.00  0.00  0.99  0.00  0.00  0.44  0.00
  C5                      1.00   0.00  0.00  0.00  0.88  0.12  0.00  0.00  0.98  0.00
  C8                      1.00   0.00  0.00  0.00  0.00  1.00  0.00  0.00  0.00  0.00
  C15                     1.00   0.00  0.00  0.00  0.00  1.00  0.00  0.00  0.00  0.00
  C21                     1.00   0.00  0.00  0.00  0.00  1.00  0.00  0.00  0.00  0.00
  
  
  *************************
  Conduit Surcharge Summary
  *************************
  
  ----------------------------------------------------------------------------
                                                           Hours        Hours 
                         --------- Hours Full --------   Above Full   Capacity
  Conduit                Both Ends  Upstream  Dnstream   Normal Flow   Limited
  ----------------------------------------------------------------------------
  C10                         0.01      0.01      5.30      0.01         0.01
  C13                         0.01      0.01      4.52      0.01         0.01
  C18                         0.01      0.01      4.02      0.01         0.01
  C23                         0.01      0.01      5.33      0.01         0.01
  C4                          0.01      0.01      5.58      0.01         0.01
  C7                          0.01      0.01      5.36      0.01         0.01
  

  Analysis begun on:  Mon Aug 30 14:59:47 2021
  Analysis ended on:  Mon Aug 30 14:59:47 2021
  Total elapsed time: < 1 sec