
  EPA STORM WATER MANAGEMENT MODEL - VERSION 5.1 (Build 5.3.0.dev0)
  --------------------------------------------------------------

  WARNING 09: time series interval greater than recording interval for Rain Gage RG1
  WARNING 09: time series interval greater than recording interval for Rain Gage RG2
  WARNING 09: time series interval greater than recording interval for Rain Gage RG3
  WARNING 09: time series interval greater than recording interval for Rain Gage RG4
  
  *********************************************************
  NOTE: The summary statistics displayed in this report are
  based on results found at every computational time step,  
  not just on results from each reporting time step.
  *********************************************************
  
  ****************
  Analysis Options
  ****************
  Flow Units ............... CMS
  Process Models:
    Rainfall/Runoff ........ YES
    RDII ................... NO
    Snowmelt ............... NO
    Groundwater ............ NO
    Flow Routing ........... YES
    Ponding Allowed ........ YES
    Water Quality .......... NO
  Infiltration Method ...... HORTON
  Flow Routing Method ...... DYNWAVE
  Surcharge Method ......... EXTRAN
  Starting Date ............ 08/28/2015 00:00:00
  Ending Date .............. 08/28/2015 23:50:00
  Antecedent Dry Days ...... 0.0
  Report Time Step ......... 00:01:00
  Wet Time Step ............ 00:01:00
  Dry Time Step ............ 00:01:00
  Routing Time Step ........ 5.00 sec
  Variable Time Step ....... YES
  Maximum Trials ........... 8
  Number of Threads ........ 1
  Head Tolerance ........... 0.001500 m
  
  
  **************************        Volume         Depth
  Runoff Quantity Continuity     hectare-m            mm
  **************************     ---------       -------
  Total Precipitation ......         3.761        20.870
  Evaporation Loss .........         0.000         0.000
  Infiltration Loss ........         0.000         0.000
  Surface Runoff ...........         3.762        20.877
  Final Storage ............         0.022         0.122
  Continuity Error (%) .....        -0.620
  
  
  **************************        Volume        Volume
  Flow Routing Continuity        hectare-m      10^6 ltr
  **************************     ---------     ---------
  Dry Weather Inflow .......         0.759         7.586
  Wet Weather Inflow .......         3.762        37.620
  Groundwater Inflow .......         0.000         0.000
  RDII Inflow ..............         0.000         0.000
  External Inflow ..........         0.000         0.000
  External Outflow .........         0.983         9.827
  Flooding Loss ............         2.630        26.305
  Evaporation Loss .........         0.000         0.000
  Exfiltration Loss ........         0.000         0.000
  Initial Stored Volume ....         0.000         0.000
  Final Stored Volume ......         0.733         7.330
  Continuity Error (%) .....         3.858
  
  
  *************************
  Highest Continuity Errors
  *************************
  Node T6 (13.68%)
  Node T2 (10.36%)
  Node T3 (8.79%)
  Node T4 (8.11%)
  Node T5 (8.06%)
  
  
  ***************************
  Time-Step Critical Elements
  ***************************
  None
  
  
  ********************************
  Highest Flow Instability Indexes
  ********************************
  All links are stable.
  
  
  *************************
  Routing Time Step Summary
  *************************
  Minimum Time Step           :     3.50 sec
  Average Time Step           :     5.00 sec
  Maximum Time Step           :     5.00 sec
  Percent in Steady State     :     0.00
  Average Iterations per Step :     2.14
  Percent Not Converging      :     0.53
  
  
  ***************************
  Subcatchment Runoff Summary
  ***************************
  
  ------------------------------------------------------------------------------------------------------------------------------
                            Total      Total      Total      Total     Imperv       Perv      Total       Total     Peak  Runoff
                           Precip      Runon       Evap      Infil     Runoff     Runoff     Runoff      Runoff   Runoff   Coeff
  Subcatchment                 mm         mm         mm         mm         mm         mm         mm    10^6 ltr      CMS
  ------------------------------------------------------------------------------------------------------------------------------
  SC01                      12.93       0.00       0.00       0.00      12.94       0.00      12.94        4.27     6.30   1.001
  SC02                      31.76       0.00       0.00       0.00      31.89       0.00      31.89        7.25     4.80   1.004
  SC03                      38.82       0.00       0.00       0.00      39.14       0.00      39.14        7.05     4.42   1.008
  SC04                      31.76       0.00       0.00       0.00      31.65       0.00      31.65        2.18     0.81   0.997
  SC05                      12.93       0.00       0.00       0.00      12.93       0.00      12.93        2.02     2.74   1.000
  SC06                       2.59       0.00       0.00       0.00       2.40       0.00       2.40        0.78     0.18   0.928
  SC07                      31.76       0.00       0.00       0.00      31.65       0.00      31.65        1.50     0.56   0.997
  SC08                      38.82       0.00       0.00       0.00      38.85       0.00      38.85       10.88     5.14   1.001
  SC09                       2.59       0.00       0.00       0.00       2.47       0.00       2.47        0.17     0.05   0.954
  SC010                     12.93       0.00       0.00       0.00      12.89       0.00      12.89        1.51     1.66   0.997
  
  
  ******************
  Node Depth Summary
  ******************
  
  ---------------------------------------------------------------------------------
                                 Average  Maximum  Maximum  Time of Max    Reported
                                   Depth    Depth      HGL   Occurrence   Max Depth
  Node                 Type       Meters   Meters   Meters  days hr:min      Meters
  ---------------------------------------------------------------------------------
  J1                   JUNCTION     0.05     0.60    34.60     0  16:01        0.55
  J3                   JUNCTION     0.08     0.14    18.14     0  19:50        0.14
  CSO7                 JUNCTION     0.15     1.20    35.20     0  13:55        1.20
  J5                   JUNCTION     0.05     0.30    32.30     0  14:01        0.30
  CSO9                 JUNCTION     0.06     0.21    40.21     0  16:16        0.21
  J8                   JUNCTION     0.06     0.16    36.16     0  16:19        0.16
  CSO8                 JUNCTION     0.22     2.00    34.00     0  14:01        2.00
  J10                  JUNCTION     0.08     0.60    29.60     0  15:56        0.60
  J13                  JUNCTION     0.05     0.55    29.55     0  14:01        0.52
  J15                  JUNCTION     0.12     0.77    15.77     0  16:08        0.77
  J16                  JUNCTION     0.04     0.63    30.63     0  16:01        0.57
  CSO10                JUNCTION     0.08     1.00    31.00     0  15:56        1.00
  J12                  JUNCTION     0.40     1.14    27.14     0  19:09        1.14
  J4                   JUNCTION     0.12     1.30    34.30     0  15:55        1.12
  J6                   JUNCTION     0.05     0.07    25.07     0  17:47        0.07
  J2                   JUNCTION     0.05     0.08    25.08     0  16:57        0.08
  J19                  JUNCTION     0.10     0.17     8.17     0  16:06        0.17
  J9                   JUNCTION     0.06     0.10    29.10     0  18:58        0.10
  J14                  JUNCTION     0.08     0.15    20.15     0  21:41        0.15
  J17                  JUNCTION     0.04     0.08    20.08     0  15:30        0.08
  J7                   JUNCTION     0.05     0.14    39.14     0  16:20        0.14
  J11                  JUNCTION     0.07     0.30    31.30     0  16:26        0.30
  J18                  JUNCTION     0.03     0.16    29.16     0  16:28        0.16
  Out_to_WWTP          OUTFALL      0.10     0.17     6.17     0  17:15        0.17
  T5                   STORAGE      1.68     5.00    32.00     0  16:06        5.00
  T4                   STORAGE      2.23     5.00    32.00     0  14:15        5.00
  T6                   STORAGE      1.57     3.70    34.70     0  18:35        3.70
  T3                   STORAGE      2.10     5.00    27.00     0  15:45        5.00
  T2                   STORAGE      2.21     5.00    26.00     0  14:05        5.00
  T1                   STORAGE      1.49     5.00    15.00     0  16:05        5.00
  
  
  *******************
  Node Inflow Summary
  *******************
  
  -------------------------------------------------------------------------------------------------
                                  Maximum  Maximum                  Lateral       Total        Flow
                                  Lateral    Total  Time of Max      Inflow      Inflow     Balance
                                   Inflow   Inflow   Occurrence      Volume      Volume       Error
  Node                 Type           CMS      CMS  days hr:min    10^6 ltr    10^6 ltr     Percent
  -------------------------------------------------------------------------------------------------
  J1                   JUNCTION     2.756    2.756     0  16:01        3.11        3.11       0.023
  J3                   JUNCTION     0.000    0.189     0  19:02           0        6.21       0.388
  CSO7                 JUNCTION     0.571    0.571     0  14:01        2.07        2.07      -0.010
  J5                   JUNCTION     0.818    0.886     0  14:01        2.43        3.72       0.035
  CSO9                 JUNCTION     0.059    0.059     0  16:16       0.553       0.553       0.022
  J8                   JUNCTION     0.201    0.243     0  16:16        2.62        3.17       0.023
  CSO8                 JUNCTION     5.150    5.150     0  15:56        11.3        11.3      -0.037
  J10                  JUNCTION     4.433    4.919     0  15:56         7.8        13.3      -0.118
  J13                  JUNCTION     4.819    4.819     0  14:01        8.17        8.17      -0.069
  J15                  JUNCTION     0.000    6.599     0  16:01           0        13.6       0.498
  J16                  JUNCTION     6.311    6.311     0  16:01        5.35        5.35      -0.109
  CSO10                JUNCTION     1.665    1.665     0  16:01        1.79        1.79      -0.032
  J12                  JUNCTION     0.000    3.940     0  15:56           0        15.9       4.573
  J4                   JUNCTION     0.000    0.085     0  15:53           0        1.28      -0.053
  J6                   JUNCTION     0.000    0.028     0  14:30           0        1.08       0.234
  J2                   JUNCTION     0.000    0.039     0  16:06           0        1.59       0.295
  J19                  JUNCTION     0.000    0.271     0  16:05           0        9.84       0.096
  J9                   JUNCTION     0.000    0.065     0  18:40           0        2.44       0.567
  J14                  JUNCTION     0.000    0.124     0  19:05           0        3.55       0.116
  J17                  JUNCTION     0.000    0.033     0  15:20           0        1.05       0.570
  J7                   JUNCTION     0.000    0.056     0  16:17           0       0.552       0.200
  J11                  JUNCTION     0.000    0.487     0  16:25           0        5.54       0.188
  J18                  JUNCTION     0.000    0.202     0  16:28           0        1.01       0.053
  Out_to_WWTP          OUTFALL      0.000    0.271     0  16:07           0        9.83       0.000
  T5                   STORAGE      0.000    2.653     0  16:01           0        3.11       8.767
  T4                   STORAGE      0.000    0.819     0  14:01           0        3.71       8.824
  T6                   STORAGE      0.000    0.234     0  16:19           0        3.17      15.850
  T3                   STORAGE      0.000    3.293     0  15:54           0        15.2       9.642
  T2                   STORAGE      0.000    4.510     0  14:01           0        8.17      11.553
  T1                   STORAGE      0.000    4.047     0  16:03           0        13.5       2.656
  
  
  **********************
  Node Surcharge Summary
  **********************
  
  Surcharging occurs when water rises above the top of the highest conduit.
  ---------------------------------------------------------------------
                                               Max. Height   Min. Depth
                                   Hours       Above Crown    Below Rim
  Node                 Type      Surcharged         Meters       Meters
  ---------------------------------------------------------------------
  CSO7                 JUNCTION        2.06          0.945        0.000
  CSO8                 JUNCTION        2.21          1.547        0.000
  CSO10                JUNCTION        0.62          0.560        0.000
  J4                   JUNCTION        1.97          0.997        0.703
  
  
  *********************
  Node Flooding Summary
  *********************
  
  Flooding refers to all water that overflows a node, whether it ponds or not.
  --------------------------------------------------------------------------
                                                             Total   Maximum
                                 Maximum   Time of Max       Flood    Ponded
                        Hours       Rate    Occurrence      Volume     Depth
  Node                 Flooded       CMS   days hr:min    10^6 ltr    Meters
  --------------------------------------------------------------------------
  CSO7                    1.72     0.490      0  14:01       0.788     0.000
  CSO8                    1.73     4.660      0  15:56       5.792     0.000
  CSO10                   0.54     1.462      0  16:01       0.776     0.000
  T5                      1.07     1.665      0  16:06       0.991     0.000
  T4                      4.66     0.523      0  16:01       1.920     0.000
  T3                      4.05     3.205      0  15:54       7.648     0.000
  T2                      5.00     2.388      0  14:06       5.368     0.000
  T1                      1.02     3.025      0  16:08       3.024     0.000
  
  
  **********************
  Storage Volume Summary
  **********************
  
  --------------------------------------------------------------------------------------------------
                         Average     Avg  Evap Exfil       Maximum     Max    Time of Max    Maximum
                          Volume    Pcnt  Pcnt  Pcnt        Volume    Pcnt     Occurrence    Outflow
  Storage Unit           1000 m3    Full  Loss  Loss       1000 m3    Full    days hr:min        CMS
  --------------------------------------------------------------------------------------------------
  T5                       0.168      34     0     0         0.500     100       0  16:06      0.039
  T4                       0.223      45     0     0         0.500     100       0  14:15      0.028
  T6                       0.188      31     0     0         0.444      74       0  18:35      0.065
  T3                       1.092      42     0     0         2.600     100       0  15:45      0.367
  T2                       0.442      44     0     0         1.000     100       0  14:05      0.033
  T1                       0.208      30     0     0         0.700     100       0  16:05      0.271
  
  
  ***********************
  Outfall Loading Summary
  ***********************
  
  -----------------------------------------------------------
                         Flow       Avg       Max       Total
                         Freq      Flow      Flow      Volume
  Outfall Node           Pcnt       CMS       CMS    10^6 ltr
  -----------------------------------------------------------
  Out_to_WWTP           99.43     0.115     0.271       9.827
  -----------------------------------------------------------
  System                99.43     0.115     0.271       9.827
  
  
  ********************
  Link Flow Summary
  ********************
  
  -----------------------------------------------------------------------------
                                 Maximum  Time of Max   Maximum    Max/    Max/
                                  |Flow|   Occurrence   |Veloc|    Full    Full
  Link                 Type          CMS  days hr:min     m/sec    Flow   Depth
  -----------------------------------------------------------------------------
  C1                   CONDUIT     0.039     0  16:57      1.06    0.01    0.11
  C6                   CONDUIT     0.076     0  14:11      1.29    1.21    1.00
  C2                   CONDUIT     0.028     0  17:47      1.17    0.03    0.17
  C9                   CONDUIT     0.051     0  16:20      1.02    0.17    0.30
  C16                  CONDUIT     0.486     0  16:19      1.86    0.05    0.22
  C3                   CONDUIT     0.124     0  19:42      1.88    0.05    0.14
  C19                  CONDUIT     0.033     0  15:30      0.79    0.01    0.41
  C11                  CONDUIT     0.188     0  19:50      1.76    0.01    0.22
  C20                  CONDUIT     6.226     0  16:01      8.30    0.19    0.30
  C22                  CONDUIT     0.202     0  16:28      1.53    0.09    0.58
  C12                  CONDUIT     0.064     0  18:58      0.90    0.01    0.31
  C17                  CONDUIT     3.918     0  15:56      4.07    0.19    0.42
  C10                  CONDUIT     0.234     0  16:19      0.94    0.02    0.55
  C13                  CONDUIT     3.293     0  15:54      1.27    0.19    0.78
  C18                  CONDUIT     4.510     0  14:01      2.27    0.17    0.64
  C23                  CONDUIT     4.047     0  16:03      2.91    0.45    0.76
  C4                   CONDUIT     2.653     0  16:01      3.98    0.64    0.80
  C7                   CONDUIT     0.819     0  14:01      1.51    0.20    0.65
  C14                  CONDUIT     0.271     0  16:07      2.08    0.02    0.09
  C5                   CONDUIT     0.085     0  15:53      1.82    1.46    1.00
  C8                   CONDUIT     0.056     0  16:17      1.33    0.71    0.54
  C15                  CONDUIT     0.487     0  16:25      3.70    1.55    0.83
  C21                  CONDUIT     0.202     0  16:28      2.03    1.16    0.69
  V4                   ORIFICE     0.028     0  14:30                      0.35
  V5                   ORIFICE     0.039     0  16:06                      1.00
  V1                   ORIFICE     0.271     0  16:05                      1.00
  V6                   ORIFICE     0.065     0  18:40                      0.43
  V3                   ORIFICE     0.124     0  19:05                      0.65
  V2                   ORIFICE     0.033     0  15:20                      0.24
  
  
  ***************************
  Flow Classification Summary
  ***************************
  
  -------------------------------------------------------------------------------------
                      Adjusted    ---------- Fraction of Time in Flow Class ---------- 
                       /Actual         Up    Down  Sub   Sup   Up    Down  Norm  Inlet 
  Conduit               Length    Dry  Dry   Dry   Crit  Crit  Crit  Crit  Ltd   Ctrl  
  -------------------------------------------------------------------------------------
  C1                      1.00   0.00  0.00  0.00  0.18  0.82  0.00  0.00  0.96  0.00
  C6                      1.00   0.00  0.00  0.00  0.10  0.90  0.00  0.00  0.00  0.00
  C2                      1.00   0.00  0.00  0.00  0.45  0.55  0.00  0.00  0.97  0.00
  C9                      1.00   0.00  0.00  0.00  1.00  0.00  0.00  0.00  1.00  0.00
  C16                     1.00   0.00  0.25  0.00  0.53  0.22  0.00  0.00  0.46  0.00
  C3                      1.00   0.00  0.00  0.00  0.04  0.96  0.00  0.00  0.58  0.00
  C19                     1.00   0.00  0.00  0.00  1.00  0.00  0.00  0.00  1.00  0.00
  C11                     1.00   0.00  0.00  0.00  0.07  0.93  0.00  0.00  1.00  0.00
  C20                     1.00   0.00  0.00  0.00  0.88  0.12  0.00  0.00  0.99  0.00
  C22                     1.00   0.00  0.00  0.00  0.98  0.02  0.00  0.00  1.00  0.00
  C12                     1.00   0.00  0.00  0.00  0.70  0.30  0.00  0.00  0.92  0.00
  C17                     1.00   0.00  0.00  0.00  0.56  0.44  0.00  0.00  0.98  0.00
  C10                     1.00   0.00  0.00  0.00  0.94  0.06  0.00  0.00  0.98  0.00
  C13                     1.00   0.00  0.00  0.00  0.79  0.21  0.00  0.00  0.55  0.00
  C18                     1.00   0.00  0.00  0.00  0.94  0.06  0.00  0.00  0.98  0.00
  C23                     1.00   0.00  0.00  0.00  0.78  0.22  0.00  0.00  0.95  0.00
  C4                      1.00   0.00  0.00  0.00  0.82  0.18  0.00  0.00  0.97  0.00
  C7                      1.00   0.00  0.00  0.00  0.94  0.06  0.00  0.00  0.97  0.00
  C14                     1.00   0.00  0.00  0.00  0.00  1.00  0.00  0.00  0.44  0.00
  C5                      1.00   0.00  0.00  0.00  0.94  0.06  0.00  0.00  0.90  0.00
  C8                      1.00   0.00  0.00  0.00  0.22  0.78  0.00  0.00  0.00  0.00
  C15                     1.00   0.25  0.00  0.00  0.00  0.75  0.00  0.00  0.00  0.00
  C21                     1.00   0.00  0.00  0.00  0.00  1.00  0.00  0.00  0.00  0.00
  
  
  *************************
  Conduit Surcharge Summary
  *************************
  
  ----------------------------------------------------------------------------
                                                           Hours        Hours 
                         --------- Hours Full --------   Above Full   Capacity
  Conduit                Both Ends  Upstream  Dnstream   Normal Flow   Limited
  ----------------------------------------------------------------------------
  C6                          0.01      1.97      0.02      1.70         0.01
  C10                         0.01      0.01     11.02      0.01         0.01
  C13                         0.01      0.01      9.48      0.01         0.01
  C18                         0.01      0.01      9.85      0.01         0.01
  C23                         0.01      0.01      7.86      0.01         0.01
  C4                          0.01      0.01     10.16      0.01         0.01
  C7                          0.01      0.01     11.33      0.01         0.01
  C5                          1.94      2.06      2.15      2.02         1.84
  C15                         0.01      2.21      0.01      2.28         0.01
  C21                         0.01      0.62      0.01      0.60         0.01
  

  Analysis begun on:  Mon Sep 20 12:56:03 2021
  Analysis ended on:  Mon Sep 20 12:56:04 2021
  Total elapsed time: 00:00:01