
  EPA STORM WATER MANAGEMENT MODEL - VERSION 5.1 (Build 5.3.0.dev0)
  --------------------------------------------------------------

  
  *********************************************************
  NOTE: The summary statistics displayed in this report are
  based on results found at every computational time step,  
  not just on results from each reporting time step.
  *********************************************************
  
  ****************
  Analysis Options
  ****************
  Flow Units ............... CMS
  Process Models:
    Rainfall/Runoff ........ YES
    RDII ................... NO
    Snowmelt ............... NO
    Groundwater ............ NO
    Flow Routing ........... YES
    Ponding Allowed ........ YES
    Water Quality .......... NO
  Infiltration Method ...... HORTON
  Flow Routing Method ...... DYNWAVE
  Surcharge Method ......... EXTRAN
  Starting Date ............ 08/28/2015 08:00:00
  Ending Date .............. 08/28/2015 15:50:00
  Antecedent Dry Days ...... 0.0
  Report Time Step ......... 00:01:00
  Wet Time Step ............ 00:01:00
  Dry Time Step ............ 00:01:00
  Routing Time Step ........ 5.00 sec
  Variable Time Step ....... YES
  Maximum Trials ........... 8
  Number of Threads ........ 1
  Head Tolerance ........... 0.001500 m
  
  
  **************************        Volume         Depth
  Runoff Quantity Continuity     hectare-m            mm
  **************************     ---------       -------
  Total Precipitation ......         1.929        10.707
  Evaporation Loss .........         0.000         0.000
  Infiltration Loss ........         0.000         0.000
  Surface Runoff ...........         1.906        10.578
  Final Storage ............         0.023         0.130
  Continuity Error (%) .....        -0.006
  
  
  **************************        Volume        Volume
  Flow Routing Continuity        hectare-m      10^6 ltr
  **************************     ---------     ---------
  Dry Weather Inflow .......         0.396         3.956
  Wet Weather Inflow .......         1.906        19.061
  Groundwater Inflow .......         0.000         0.000
  RDII Inflow ..............         0.000         0.000
  External Inflow ..........         0.000         0.000
  External Outflow .........         0.555         5.545
  Flooding Loss ............         0.705         7.047
  Evaporation Loss .........         0.000         0.000
  Exfiltration Loss ........         0.000         0.000
  Initial Stored Volume ....         0.000         0.000
  Final Stored Volume ......         0.803         8.032
  Continuity Error (%) .....        10.394
  
  
  *************************
  Highest Continuity Errors
  *************************
  Node T2 (30.22%)
  Node T3 (22.09%)
  Node T4 (20.75%)
  Node T5 (17.96%)
  Node T6 (13.70%)
  
  
  ***************************
  Time-Step Critical Elements
  ***************************
  None
  
  
  ********************************
  Highest Flow Instability Indexes
  ********************************
  All links are stable.
  
  
  *************************
  Routing Time Step Summary
  *************************
  Minimum Time Step           :     1.58 sec
  Average Time Step           :     5.00 sec
  Maximum Time Step           :     5.00 sec
  Percent in Steady State     :     0.00
  Average Iterations per Step :     2.19
  Percent Not Converging      :     0.53
  
  
  ***************************
  Subcatchment Runoff Summary
  ***************************
  
  ------------------------------------------------------------------------------------------------------------------------------
                            Total      Total      Total      Total     Imperv       Perv      Total       Total     Peak  Runoff
                           Precip      Runon       Evap      Infil     Runoff     Runoff     Runoff      Runoff   Runoff   Coeff
  Subcatchment                 mm         mm         mm         mm         mm         mm         mm    10^6 ltr      CMS
  ------------------------------------------------------------------------------------------------------------------------------
  SC01                      10.71       0.00       0.00       0.00      10.62       0.00      10.62        3.51     0.86   0.992
  SC02                      10.71       0.00       0.00       0.00      10.62       0.00      10.62        2.42     0.59   0.992
  SC03                      10.71       0.00       0.00       0.00      10.64       0.00      10.64        1.91     0.50   0.994
  SC04                      10.71       0.00       0.00       0.00      10.51       0.00      10.51        0.73     0.15   0.982
  SC05                      10.71       0.00       0.00       0.00      10.62       0.00      10.62        1.66     0.40   0.991
  SC06                      10.71       0.00       0.00       0.00      10.46       0.00      10.46        3.41     0.68   0.977
  SC07                      10.71       0.00       0.00       0.00      10.52       0.00      10.52        0.50     0.10   0.982
  SC08                      10.71       0.00       0.00       0.00      10.59       0.00      10.59        2.97     0.69   0.989
  SC09                      10.71       0.00       0.00       0.00      10.57       0.00      10.57        0.73     0.16   0.987
  SC010                     10.71       0.00       0.00       0.00      10.60       0.00      10.60        1.24     0.29   0.990
  
  
  ******************
  Node Depth Summary
  ******************
  
  ---------------------------------------------------------------------------------
                                 Average  Maximum  Maximum  Time of Max    Reported
                                   Depth    Depth      HGL   Occurrence   Max Depth
  Node                 Type       Meters   Meters   Meters  days hr:min      Meters
  ---------------------------------------------------------------------------------
  J1                   JUNCTION     0.08     0.22    34.22     0  02:19        0.22
  J3                   JUNCTION     0.09     0.11    18.11     0  03:57        0.11
  CSO7                 JUNCTION     0.24     1.20    35.20     0  02:04        1.20
  J5                   JUNCTION     0.07     0.16    32.16     0  02:23        0.16
  CSO9                 JUNCTION     0.31     2.00    42.00     0  02:09        2.00
  J8                   JUNCTION     0.12     0.30    36.30     0  02:25        0.30
  CSO8                 JUNCTION     0.33     2.00    34.00     0  02:07        2.00
  J10                  JUNCTION     0.11     0.30    29.30     0  02:18        0.30
  J13                  JUNCTION     0.07     0.21    29.21     0  02:19        0.21
  J15                  JUNCTION     0.17     0.37    15.37     0  02:22        0.37
  J16                  JUNCTION     0.08     0.23    30.23     0  02:18        0.23
  CSO10                JUNCTION     0.20     1.00    31.00     0  02:06        1.00
  J12                  JUNCTION     0.68     1.01    27.01     0  03:39        1.01
  J4                   JUNCTION     0.20     1.29    34.29     0  02:04        0.83
  J6                   JUNCTION     0.06     0.07    25.07     0  03:49        0.07
  J2                   JUNCTION     0.07     0.08    25.08     0  03:18        0.08
  J19                  JUNCTION     0.14     0.17     8.17     0  02:19        0.17
  J9                   JUNCTION     0.09     0.11    29.11     0  04:05        0.11
  J14                  JUNCTION     0.09     0.11    20.11     0  02:00        0.11
  J17                  JUNCTION     0.06     0.08    20.08     0  03:49        0.08
  J7                   JUNCTION     0.09     0.23    39.23     0  02:42        0.23
  J11                  JUNCTION     0.11     0.30    31.30     0  02:43        0.30
  J18                  JUNCTION     0.06     0.16    29.16     0  02:43        0.16
  Out_to_WWTP          OUTFALL      0.14     0.17     6.17     0  03:52        0.17
  T5                   STORAGE      3.53     5.00    32.00     0  02:30        5.00
  T4                   STORAGE      3.47     5.00    32.00     0  03:01        5.00
  T6                   STORAGE      3.65     5.00    36.00     0  02:23        5.00
  T3                   STORAGE      3.52     5.00    27.00     0  03:33        5.00
  T2                   STORAGE      3.54     5.00    26.00     0  02:51        5.00
  T1                   STORAGE      3.22     5.00    15.00     0  02:18        5.00
  
  
  *******************
  Node Inflow Summary
  *******************
  
  -------------------------------------------------------------------------------------------------
                                  Maximum  Maximum                  Lateral       Total        Flow
                                  Lateral    Total  Time of Max      Inflow      Inflow     Balance
                                   Inflow   Inflow   Occurrence      Volume      Volume       Error
  Node                 Type           CMS      CMS  days hr:min    10^6 ltr    10^6 ltr     Percent
  -------------------------------------------------------------------------------------------------
  J1                   JUNCTION     0.423    0.423     0  02:19        2.22        2.22       0.014
  J3                   JUNCTION     0.000    0.127     0  03:47           0        2.77       1.043
  CSO7                 JUNCTION     0.115    0.115     0  02:22        0.79        0.79       0.059
  J5                   JUNCTION     0.156    0.228     0  02:22       0.853        1.55       0.101
  CSO9                 JUNCTION     0.170    0.170     0  02:21       0.925       0.925       0.045
  J8                   JUNCTION     0.710    0.837     0  02:24        4.35        5.22       0.093
  CSO8                 JUNCTION     0.698    0.698     0  02:20        3.26        3.26       0.013
  J10                  JUNCTION     0.510    0.996     0  02:17         2.3        5.29      -0.028
  J13                  JUNCTION     0.604    0.604     0  02:19        2.88        2.88      -0.154
  J15                  JUNCTION     0.000    1.195     0  02:19           0        8.76       0.775
  J16                  JUNCTION     0.884    0.884     0  02:18        4.06        4.06      -0.009
  CSO10                JUNCTION     0.296    0.296     0  02:20        1.38        1.38       0.013
  J12                  JUNCTION     0.000    1.058     0  02:18           0        7.07      12.979
  J4                   JUNCTION     0.000    0.074     0  02:04           0       0.703       0.476
  J6                   JUNCTION     0.000    0.028     0  03:01           0        0.58       0.696
  J2                   JUNCTION     0.000    0.039     0  02:30           0       0.859       0.593
  J19                  JUNCTION     0.000    0.271     0  02:18           0        5.56       0.187
  J9                   JUNCTION     0.000    0.075     0  02:23           0        1.68       1.032
  J14                  JUNCTION     0.000    0.060     0  03:33           0        1.34       0.326
  J17                  JUNCTION     0.000    0.033     0  02:51           0         0.7       0.990
  J7                   JUNCTION     0.000    0.127     0  02:42           0       0.874       0.357
  J11                  JUNCTION     0.000    0.486     0  02:43           0           3       0.210
  J18                  JUNCTION     0.000    0.202     0  02:42           0        1.27       0.071
  Out_to_WWTP          OUTFALL      0.000    0.271     0  02:20           0        5.55       0.000
  T5                   STORAGE      0.000    0.422     0  02:19           0        2.22      21.889
  T4                   STORAGE      0.000    0.228     0  02:23           0        1.55      26.191
  T6                   STORAGE      0.000    0.837     0  02:25           0        5.21      15.876
  T3                   STORAGE      0.000    1.050     0  02:21           0        6.26      28.358
  T2                   STORAGE      0.000    0.604     0  02:19           0        2.89      43.313
  T1                   STORAGE      0.000    1.179     0  02:22           0        8.69       6.058
  
  
  **********************
  Node Surcharge Summary
  **********************
  
  Surcharging occurs when water rises above the top of the highest conduit.
  ---------------------------------------------------------------------
                                               Max. Height   Min. Depth
                                   Hours       Above Crown    Below Rim
  Node                 Type      Surcharged         Meters       Meters
  ---------------------------------------------------------------------
  CSO7                 JUNCTION        1.14          0.945        0.000
  CSO9                 JUNCTION        1.16          1.682        0.000
  CSO8                 JUNCTION        1.14          1.547        0.000
  CSO10                JUNCTION        0.87          0.560        0.000
  J4                   JUNCTION        1.11          0.991        0.709
  
  
  *********************
  Node Flooding Summary
  *********************
  
  Flooding refers to all water that overflows a node, whether it ponds or not.
  --------------------------------------------------------------------------
                                                             Total   Maximum
                                 Maximum   Time of Max       Flood    Ponded
                        Hours       Rate    Occurrence      Volume     Depth
  Node                 Flooded       CMS   days hr:min    10^6 ltr    Meters
  --------------------------------------------------------------------------
  CSO7                    0.97     0.044      0  02:22       0.087     0.000
  CSO9                    0.56     0.043      0  02:21       0.051     0.000
  CSO8                    0.60     0.212      0  02:20       0.258     0.000
  CSO10                   0.62     0.093      0  02:20       0.115     0.000
  T5                      1.36     0.320      0  02:30       0.560     0.000
  T4                      1.77     0.141      0  03:01       0.208     0.000
  T6                      2.69     0.761      0  02:25       2.311     0.000
  T3                      3.76     0.380      0  03:33       0.826     0.000
  T2                      1.43     0.309      0  02:51       0.399     0.000
  T1                      1.38     0.908      0  02:22       2.233     0.000
  
  
  **********************
  Storage Volume Summary
  **********************
  
  --------------------------------------------------------------------------------------------------
                         Average     Avg  Evap Exfil       Maximum     Max    Time of Max    Maximum
                          Volume    Pcnt  Pcnt  Pcnt        Volume    Pcnt     Occurrence    Outflow
  Storage Unit           1000 m3    Full  Loss  Loss       1000 m3    Full    days hr:min        CMS
  --------------------------------------------------------------------------------------------------
  T5                       0.353      71     0     0         0.500     100       0  02:30      0.039
  T4                       0.347      69     0     0         0.500     100       0  03:01      0.028
  T6                       0.438      73     0     0         0.600     100       0  02:23      0.075
  T3                       1.829      70     0     0         2.600     100       0  03:33      0.306
  T2                       0.709      71     0     0         1.000     100       0  02:51      0.033
  T1                       0.450      64     0     0         0.700     100       0  02:18      0.271
  
  
  ***********************
  Outfall Loading Summary
  ***********************
  
  -----------------------------------------------------------
                         Flow       Avg       Max       Total
                         Freq      Flow      Flow      Volume
  Outfall Node           Pcnt       CMS       CMS    10^6 ltr
  -----------------------------------------------------------
  Out_to_WWTP           99.01     0.199     0.271       5.545
  -----------------------------------------------------------
  System                99.01     0.199     0.271       5.545
  
  
  ********************
  Link Flow Summary
  ********************
  
  -----------------------------------------------------------------------------
                                 Maximum  Time of Max   Maximum    Max/    Max/
                                  |Flow|   Occurrence   |Veloc|    Full    Full
  Link                 Type          CMS  days hr:min     m/sec    Flow   Depth
  -----------------------------------------------------------------------------
  C1                   CONDUIT     0.039     0  03:18      1.10    0.01    0.10
  C6                   CONDUIT     0.072     0  02:23      1.29    1.14    0.77
  C2                   CONDUIT     0.028     0  03:49      1.01    0.03    0.16
  C9                   CONDUIT     0.127     0  02:42      1.29    0.43    0.53
  C16                  CONDUIT     0.489     0  02:14      1.79    0.05    0.15
  C3                   CONDUIT     0.060     0  05:46      1.46    0.02    0.11
  C19                  CONDUIT     0.033     0  03:49      0.69    0.01    0.22
  C11                  CONDUIT     0.127     0  03:57      1.44    0.01    0.12
  C20                  CONDUIT     0.883     0  02:18      3.08    0.03    0.15
  C22                  CONDUIT     0.202     0  02:42      1.59    0.09    0.33
  C12                  CONDUIT     0.075     0  04:05      0.59    0.01    0.28
  C17                  CONDUIT     0.993     0  02:18      3.10    0.05    0.28
  C10                  CONDUIT     0.837     0  02:25      1.66    0.09    0.60
  C13                  CONDUIT     1.050     0  02:21      1.45    0.06    0.75
  C18                  CONDUIT     0.604     0  02:19      1.72    0.02    0.55
  C23                  CONDUIT     1.179     0  02:22      1.24    0.13    0.62
  C4                   CONDUIT     0.422     0  02:19      1.98    0.10    0.61
  C7                   CONDUIT     0.228     0  02:23      1.43    0.06    0.58
  C14                  CONDUIT     0.271     0  02:20      2.08    0.02    0.09
  C5                   CONDUIT     0.074     0  02:04      1.44    1.26    1.00
  C8                   CONDUIT     0.127     0  02:42      1.75    1.60    0.86
  C15                  CONDUIT     0.486     0  02:43      3.42    1.55    0.83
  C21                  CONDUIT     0.202     0  02:42      1.83    1.16    0.69
  V4                   ORIFICE     0.028     0  03:01                      0.35
  V5                   ORIFICE     0.039     0  02:30                      1.00
  V1                   ORIFICE     0.271     0  02:18                      1.00
  V6                   ORIFICE     0.075     0  02:23                      0.43
  V3                   ORIFICE     0.060     0  03:33                      0.65
  V2                   ORIFICE     0.033     0  02:51                      0.24
  
  
  ***************************
  Flow Classification Summary
  ***************************
  
  -------------------------------------------------------------------------------------
                      Adjusted    ---------- Fraction of Time in Flow Class ---------- 
                       /Actual         Up    Down  Sub   Sup   Up    Down  Norm  Inlet 
  Conduit               Length    Dry  Dry   Dry   Crit  Crit  Crit  Crit  Ltd   Ctrl  
  -------------------------------------------------------------------------------------
  C1                      1.00   0.00  0.00  0.00  0.00  1.00  0.00  0.00  0.93  0.00
  C6                      1.00   0.00  0.00  0.00  0.17  0.83  0.00  0.00  0.00  0.00
  C2                      1.00   0.00  0.00  0.00  0.21  0.78  0.00  0.00  0.97  0.00
  C9                      1.00   0.00  0.00  0.00  1.00  0.00  0.00  0.00  1.00  0.00
  C16                     1.00   0.00  0.00  0.00  0.56  0.44  0.00  0.00  0.48  0.00
  C3                      1.00   0.00  0.00  0.00  0.04  0.95  0.00  0.00  0.80  0.00
  C19                     1.00   0.00  0.00  0.00  1.00  0.00  0.00  0.00  1.00  0.00
  C11                     1.00   0.00  0.00  0.00  0.34  0.65  0.00  0.00  1.00  0.00
  C20                     1.00   0.00  0.00  0.00  0.54  0.46  0.00  0.00  0.98  0.00
  C22                     1.00   0.00  0.00  0.00  0.73  0.27  0.00  0.00  1.00  0.00
  C12                     1.00   0.00  0.00  0.00  1.00  0.00  0.00  0.00  1.00  0.00
  C17                     1.00   0.00  0.00  0.00  0.63  0.37  0.00  0.00  0.94  0.00
  C10                     1.00   0.00  0.00  0.00  0.96  0.04  0.00  0.00  0.97  0.00
  C13                     1.00   0.00  0.00  0.00  0.83  0.17  0.00  0.00  0.26  0.00
  C18                     1.00   0.00  0.00  0.00  0.94  0.06  0.00  0.00  0.97  0.00
  C23                     1.00   0.00  0.00  0.00  0.86  0.14  0.00  0.00  0.94  0.00
  C4                      1.00   0.00  0.00  0.00  0.96  0.04  0.00  0.00  0.98  0.00
  C7                      1.00   0.00  0.00  0.00  0.95  0.05  0.00  0.00  0.97  0.00
  C14                     1.00   0.00  0.00  0.00  0.00  0.99  0.00  0.00  0.30  0.00
  C5                      1.00   0.00  0.00  0.00  0.90  0.10  0.00  0.00  0.83  0.00
  C8                      1.00   0.00  0.00  0.00  0.18  0.82  0.00  0.00  0.00  0.00
  C15                     1.00   0.00  0.00  0.00  0.00  1.00  0.00  0.00  0.00  0.00
  C21                     1.00   0.00  0.00  0.00  0.01  0.99  0.00  0.00  0.00  0.00
  
  
  *************************
  Conduit Surcharge Summary
  *************************
  
  ----------------------------------------------------------------------------
                                                           Hours        Hours 
                         --------- Hours Full --------   Above Full   Capacity
  Conduit                Both Ends  Upstream  Dnstream   Normal Flow   Limited
  ----------------------------------------------------------------------------
  C6                          0.01      1.11      0.01      1.02         0.01
  C10                         0.01      0.01      5.95      0.01         0.01
  C13                         0.01      0.01      5.58      0.01         0.01
  C18                         0.01      0.01      5.66      0.01         0.01
  C23                         0.01      0.01      6.02      0.01         0.01
  C4                          0.01      0.01      6.12      0.01         0.01
  C7                          0.01      0.01      5.92      0.01         0.01
  C5                          1.13      1.14      1.23      1.18         1.10
  C8                          0.01      1.16      0.01      1.18         0.01
  C15                         0.01      1.14      0.01      1.21         0.01
  C21                         0.01      0.87      0.01      0.83         0.01
  

  Analysis begun on:  Thu Sep  2 19:30:32 2021
  Analysis ended on:  Thu Sep  2 19:30:32 2021
  Total elapsed time: < 1 sec