
  EPA STORM WATER MANAGEMENT MODEL - VERSION 5.1 (Build 5.3.0.dev0)
  --------------------------------------------------------------

  WARNING 09: time series interval greater than recording interval for Rain Gage RG1
  WARNING 09: time series interval greater than recording interval for Rain Gage RG2
  WARNING 09: time series interval greater than recording interval for Rain Gage RG3
  WARNING 09: time series interval greater than recording interval for Rain Gage RG4
  
  *********************************************************
  NOTE: The summary statistics displayed in this report are
  based on results found at every computational time step,  
  not just on results from each reporting time step.
  *********************************************************
  
  ****************
  Analysis Options
  ****************
  Flow Units ............... CMS
  Process Models:
    Rainfall/Runoff ........ YES
    RDII ................... NO
    Snowmelt ............... NO
    Groundwater ............ NO
    Flow Routing ........... YES
    Ponding Allowed ........ YES
    Water Quality .......... NO
  Infiltration Method ...... HORTON
  Flow Routing Method ...... DYNWAVE
  Surcharge Method ......... EXTRAN
  Starting Date ............ 08/28/2015 00:00:00
  Ending Date .............. 08/28/2015 23:40:00
  Antecedent Dry Days ...... 0.0
  Report Time Step ......... 00:01:00
  Wet Time Step ............ 00:01:00
  Dry Time Step ............ 00:01:00
  Routing Time Step ........ 5.00 sec
  Variable Time Step ....... YES
  Maximum Trials ........... 8
  Number of Threads ........ 1
  Head Tolerance ........... 0.001500 m
  
  
  **************************        Volume         Depth
  Runoff Quantity Continuity     hectare-m            mm
  **************************     ---------       -------
  Total Precipitation ......         2.634        14.617
  Evaporation Loss .........         0.000         0.000
  Infiltration Loss ........         0.000         0.000
  Surface Runoff ...........         2.612        14.493
  Final Storage ............         0.033         0.184
  Continuity Error (%) .....        -0.415
  
  
  **************************        Volume        Volume
  Flow Routing Continuity        hectare-m      10^6 ltr
  **************************     ---------     ---------
  Dry Weather Inflow .......         0.758         7.576
  Wet Weather Inflow .......         2.612        26.116
  Groundwater Inflow .......         0.000         0.000
  RDII Inflow ..............         0.000         0.000
  External Inflow ..........         0.000         0.000
  External Outflow .........         1.048        10.483
  Flooding Loss ............         1.422        14.224
  Evaporation Loss .........         0.000         0.000
  Exfiltration Loss ........         0.000         0.000
  Initial Stored Volume ....         0.000         0.000
  Final Stored Volume ......         0.724         7.242
  Continuity Error (%) .....         5.173
  
  
  *************************
  Highest Continuity Errors
  *************************
  Node T5 (14.50%)
  Node T3 (10.81%)
  Node T2 (9.14%)
  Node T4 (6.63%)
  Node T6 (5.86%)
  
  
  ***************************
  Time-Step Critical Elements
  ***************************
  None
  
  
  ********************************
  Highest Flow Instability Indexes
  ********************************
  All links are stable.
  
  
  *************************
  Routing Time Step Summary
  *************************
  Minimum Time Step           :     1.61 sec
  Average Time Step           :     5.00 sec
  Maximum Time Step           :     5.00 sec
  Percent in Steady State     :     0.00
  Average Iterations per Step :     2.13
  Percent Not Converging      :     0.35
  
  
  ***************************
  Subcatchment Runoff Summary
  ***************************
  
  ------------------------------------------------------------------------------------------------------------------------------
                            Total      Total      Total      Total     Imperv       Perv      Total       Total     Peak  Runoff
                           Precip      Runon       Evap      Infil     Runoff     Runoff     Runoff      Runoff   Runoff   Coeff
  Subcatchment                 mm         mm         mm         mm         mm         mm         mm    10^6 ltr      CMS
  ------------------------------------------------------------------------------------------------------------------------------
  SC01                       9.66       0.00       0.00       0.00       9.58       0.00       9.58        3.16     1.10   0.992
  SC02                      17.94       0.00       0.00       0.00      17.90       0.00      17.90        4.07     2.89   0.998
  SC03                      22.19       0.00       0.00       0.00      22.33       0.00      22.33        4.02     3.79   1.006
  SC04                      17.94       0.00       0.00       0.00      17.67       0.00      17.67        1.22     0.61   0.985
  SC05                       9.66       0.00       0.00       0.00       9.57       0.00       9.57        1.49     0.50   0.990
  SC06                      10.47       0.00       0.00       0.00      10.11       0.00      10.11        3.29     1.16   0.965
  SC07                      17.94       0.00       0.00       0.00      17.68       0.00      17.68        0.84     0.42   0.985
  SC08                      22.19       0.00       0.00       0.00      22.12       0.00      22.12        6.19     3.30   0.997
  SC09                      10.47       0.00       0.00       0.00      10.28       0.00      10.28        0.71     0.32   0.982
  SC010                      9.66       0.00       0.00       0.00       9.53       0.00       9.53        1.12     0.34   0.986
  
  
  ******************
  Node Depth Summary
  ******************
  
  ---------------------------------------------------------------------------------
                                 Average  Maximum  Maximum  Time of Max    Reported
                                   Depth    Depth      HGL   Occurrence   Max Depth
  Node                 Type       Meters   Meters   Meters  days hr:min      Meters
  ---------------------------------------------------------------------------------
  J1                   JUNCTION     0.05     0.23    34.23     0  20:06        0.23
  J3                   JUNCTION     0.09     0.17    18.17     0  20:57        0.17
  CSO7                 JUNCTION     0.12     1.20    35.20     0  19:05        1.20
  J5                   JUNCTION     0.05     0.27    32.27     0  20:06        0.27
  CSO9                 JUNCTION     0.11     2.00    42.00     0  19:46        2.00
  J8                   JUNCTION     0.07     0.36    36.36     0  20:07        0.36
  CSO8                 JUNCTION     0.16     2.00    34.00     0  18:50        2.00
  J10                  JUNCTION     0.07     0.58    29.58     0  19:42        0.57
  J13                  JUNCTION     0.05     0.42    29.42     0  20:01        0.41
  J15                  JUNCTION     0.13     0.41    15.41     0  20:13        0.41
  J16                  JUNCTION     0.04     0.24    30.24     0  20:06        0.24
  CSO10                JUNCTION     0.09     1.00    31.00     0  19:01        1.00
  J12                  JUNCTION     0.23     1.08    27.08     0  19:59        1.08
  J4                   JUNCTION     0.11     1.43    34.43     0  19:07        0.75
  J6                   JUNCTION     0.06     0.12    25.12     0  20:46        0.12
  J2                   JUNCTION     0.05     0.08    25.08     0  20:52        0.08
  J19                  JUNCTION     0.11     0.17     8.17     0  19:20        0.17
  J9                   JUNCTION     0.08     0.16    29.16     0  21:04        0.16
  J14                  JUNCTION     0.10     0.19    20.19     0  19:55        0.19
  J17                  JUNCTION     0.06     0.15    20.15     0  20:40        0.15
  J7                   JUNCTION     0.06     0.23    39.23     0  20:21        0.23
  J11                  JUNCTION     0.06     0.30    31.30     0  20:13        0.30
  J18                  JUNCTION     0.03     0.16    29.16     0  19:54        0.16
  Out_to_WWTP          OUTFALL      0.11     0.17     6.17     0  19:19        0.17
  T5                   STORAGE      1.30     5.00    32.00     0  20:02        5.00
  T4                   STORAGE      0.81     5.00    32.00     0  20:13        5.00
  T6                   STORAGE      0.87     5.00    36.00     0  20:11        5.00
  T3                   STORAGE      1.21     5.00    27.00     0  19:54        5.00
  T2                   STORAGE      0.78     5.00    26.00     0  20:05        5.00
  T1                   STORAGE      1.59     5.00    15.00     0  19:19        5.00
  
  
  *******************
  Node Inflow Summary
  *******************
  
  -------------------------------------------------------------------------------------------------
                                  Maximum  Maximum                  Lateral       Total        Flow
                                  Lateral    Total  Time of Max      Inflow      Inflow     Balance
                                   Inflow   Inflow   Occurrence      Volume      Volume       Error
  Node                 Type           CMS      CMS  days hr:min    10^6 ltr    10^6 ltr     Percent
  -------------------------------------------------------------------------------------------------
  J1                   JUNCTION     0.515    0.515     0  20:06        2.59        2.59      -0.017
  J3                   JUNCTION     0.000    0.309     0  20:20           0        9.11       0.539
  CSO7                 JUNCTION     0.430    0.430     0  20:06         1.4         1.4       0.022
  J5                   JUNCTION     0.617    0.693     0  20:06        1.47        2.55       0.004
  CSO9                 JUNCTION     0.323    0.323     0  20:06        1.09        1.09       0.006
  J8                   JUNCTION     1.178    1.301     0  20:06        5.12        6.09       0.018
  CSO8                 JUNCTION     3.299    3.299     0  19:41        6.64        6.64      -0.022
  J10                  JUNCTION     3.796    4.269     0  19:41        4.77        8.62      -0.162
  J13                  JUNCTION     2.897    2.897     0  20:01        4.98        4.98      -0.164
  J15                  JUNCTION     0.000    1.610     0  20:07           0        17.6       0.722
  J16                  JUNCTION     1.117    1.117     0  20:06        4.24        4.24      -0.109
  CSO10                JUNCTION     0.347    0.347     0  20:06        1.39        1.39      -0.124
  J12                  JUNCTION     0.000    3.443     0  19:42           0        13.1       5.649
  J4                   JUNCTION     0.000    0.085     0  19:47           0        1.08       0.058
  J6                   JUNCTION     0.000    0.080     0  20:13           0        1.88       0.351
  J2                   JUNCTION     0.000    0.039     0  20:02           0        1.39       0.383
  J19                  JUNCTION     0.000    0.271     0  19:19           0        10.5       0.120
  J9                   JUNCTION     0.000    0.175     0  20:11           0        4.45       0.527
  J14                  JUNCTION     0.000    0.190     0  19:54           0        5.87       0.170
  J17                  JUNCTION     0.000    0.140     0  20:05           0        2.95       0.432
  J7                   JUNCTION     0.000    0.127     0  20:21           0       0.971       0.150
  J11                  JUNCTION     0.000    0.487     0  20:13           0        3.85       0.150
  J18                  JUNCTION     0.000    0.202     0  19:54           0        1.31      -0.012
  Out_to_WWTP          OUTFALL      0.000    0.271     0  19:20           0        10.5       0.000
  T5                   STORAGE      0.000    0.463     0  20:07           0        2.59      16.966
  T4                   STORAGE      0.000    0.653     0  20:06           0        2.55       7.099
  T6                   STORAGE      0.000    1.208     0  20:07           0        6.09       6.224
  T3                   STORAGE      0.000    2.657     0  19:44           0        12.4      12.122
  T2                   STORAGE      0.000    2.633     0  20:01           0        4.99      10.059
  T1                   STORAGE      0.000    1.489     0  20:13           0        17.4       4.990
  
  
  **********************
  Node Surcharge Summary
  **********************
  
  Surcharging occurs when water rises above the top of the highest conduit.
  ---------------------------------------------------------------------
                                               Max. Height   Min. Depth
                                   Hours       Above Crown    Below Rim
  Node                 Type      Surcharged         Meters       Meters
  ---------------------------------------------------------------------
  CSO7                 JUNCTION        1.21          0.945        0.000
  CSO9                 JUNCTION        0.73          1.682        0.000
  CSO8                 JUNCTION        1.41          1.547        0.000
  CSO10                JUNCTION        0.68          0.560        0.000
  J4                   JUNCTION        1.12          1.126        0.574
  
  
  *********************
  Node Flooding Summary
  *********************
  
  Flooding refers to all water that overflows a node, whether it ponds or not.
  --------------------------------------------------------------------------
                                                             Total   Maximum
                                 Maximum   Time of Max       Flood    Ponded
                        Hours       Rate    Occurrence      Volume     Depth
  Node                 Flooded       CMS   days hr:min    10^6 ltr    Meters
  --------------------------------------------------------------------------
  CSO7                    0.95     0.352      0  20:06       0.322     0.000
  CSO9                    0.37     0.195      0  20:06       0.120     0.000
  CSO8                    1.14     2.797      0  19:41       2.789     0.000
  CSO10                   0.45     0.146      0  20:06       0.084     0.000
  T5                      0.96     0.424      0  20:07       0.442     0.000
  T4                      0.72     0.311      0  20:13       0.277     0.000
  T6                      0.88     1.028      0  20:12       1.040     0.000
  T3                      1.80     1.773      0  20:02       2.616     0.000
  T2                      0.59     2.481      0  20:06       1.129     0.000
  T1                      4.35     1.218      0  20:13       5.406     0.000
  
  
  **********************
  Storage Volume Summary
  **********************
  
  --------------------------------------------------------------------------------------------------
                         Average     Avg  Evap Exfil       Maximum     Max    Time of Max    Maximum
                          Volume    Pcnt  Pcnt  Pcnt        Volume    Pcnt     Occurrence    Outflow
  Storage Unit           1000 m3    Full  Loss  Loss       1000 m3    Full    days hr:min        CMS
  --------------------------------------------------------------------------------------------------
  T5                       0.130      26     0     0         0.500     100       0  20:02      0.039
  T4                       0.081      16     0     0         0.500     100       0  20:13      0.080
  T6                       0.104      17     0     0         0.600     100       0  20:11      0.175
  T3                       0.628      24     0     0         2.600     100       0  19:54      0.719
  T2                       0.155      16     0     0         1.000     100       0  20:05      0.140
  T1                       0.222      32     0     0         0.700     100       0  19:19      0.271
  
  
  ***********************
  Outfall Loading Summary
  ***********************
  
  -----------------------------------------------------------
                         Flow       Avg       Max       Total
                         Freq      Flow      Flow      Volume
  Outfall Node           Pcnt       CMS       CMS    10^6 ltr
  -----------------------------------------------------------
  Out_to_WWTP           99.43     0.124     0.271      10.483
  -----------------------------------------------------------
  System                99.43     0.124     0.271      10.483
  
  
  ********************
  Link Flow Summary
  ********************
  
  -----------------------------------------------------------------------------
                                 Maximum  Time of Max   Maximum    Max/    Max/
                                  |Flow|   Occurrence   |Veloc|    Full    Full
  Link                 Type          CMS  days hr:min     m/sec    Flow   Depth
  -----------------------------------------------------------------------------
  C1                   CONDUIT     0.039     0  20:52      0.71    0.01    0.13
  C6                   CONDUIT     0.076     0  20:06      1.29    1.22    0.95
  C2                   CONDUIT     0.080     0  20:46      1.48    0.09    0.25
  C9                   CONDUIT     0.127     0  20:21      1.27    0.43    0.59
  C16                  CONDUIT     0.493     0  20:17      1.84    0.05    0.22
  C3                   CONDUIT     0.190     0  19:57      2.06    0.07    0.18
  C19                  CONDUIT     0.140     0  20:40      1.27    0.05    0.28
  C11                  CONDUIT     0.309     0  20:57      1.87    0.02    0.15
  C20                  CONDUIT     0.992     0  20:07      3.66    0.03    0.16
  C22                  CONDUIT     0.202     0  19:54      1.46    0.09    0.36
  C12                  CONDUIT     0.175     0  21:04      1.09    0.01    0.31
  C17                  CONDUIT     3.345     0  19:42      5.22    0.17    0.37
  C10                  CONDUIT     1.208     0  20:07      1.05    0.12    0.62
  C13                  CONDUIT     2.657     0  19:44      1.38    0.16    0.77
  C18                  CONDUIT     2.633     0  20:01      1.62    0.10    0.61
  C23                  CONDUIT     1.489     0  20:13      1.25    0.16    0.64
  C4                   CONDUIT     0.463     0  20:07      1.13    0.11    0.61
  C7                   CONDUIT     0.653     0  20:06      1.24    0.16    0.64
  C14                  CONDUIT     0.271     0  19:20      2.08    0.02    0.09
  C5                   CONDUIT     0.085     0  19:47      1.67    1.45    1.00
  C8                   CONDUIT     0.127     0  20:21      1.89    1.60    0.86
  C15                  CONDUIT     0.487     0  20:13      3.75    1.55    0.83
  C21                  CONDUIT     0.202     0  19:54      1.93    1.16    0.69
  V4                   ORIFICE     0.080     0  20:13                      1.00
  V5                   ORIFICE     0.039     0  20:02                      1.00
  V1                   ORIFICE     0.271     0  19:19                      1.00
  V6                   ORIFICE     0.175     0  20:11                      1.00
  V3                   ORIFICE     0.190     0  19:54                      1.00
  V2                   ORIFICE     0.140     0  20:05                      1.00
  
  
  ***************************
  Flow Classification Summary
  ***************************
  
  -------------------------------------------------------------------------------------
                      Adjusted    ---------- Fraction of Time in Flow Class ---------- 
                       /Actual         Up    Down  Sub   Sup   Up    Down  Norm  Inlet 
  Conduit               Length    Dry  Dry   Dry   Crit  Crit  Crit  Crit  Ltd   Ctrl  
  -------------------------------------------------------------------------------------
  C1                      1.00   0.00  0.00  0.00  0.93  0.07  0.00  0.00  0.97  0.00
  C6                      1.00   0.00  0.00  0.00  0.06  0.94  0.00  0.00  0.00  0.00
  C2                      1.00   0.00  0.00  0.00  0.19  0.81  0.00  0.00  0.97  0.00
  C9                      1.00   0.00  0.00  0.00  1.00  0.00  0.00  0.00  1.00  0.00
  C16                     1.00   0.00  0.25  0.00  0.55  0.20  0.00  0.00  0.46  0.00
  C3                      1.00   0.00  0.00  0.00  0.04  0.96  0.00  0.00  0.07  0.00
  C19                     1.00   0.00  0.00  0.00  0.88  0.12  0.00  0.00  1.00  0.00
  C11                     1.00   0.00  0.00  0.00  0.08  0.92  0.00  0.00  1.00  0.00
  C20                     1.00   0.00  0.00  0.00  0.88  0.12  0.00  0.00  0.99  0.00
  C22                     1.00   0.00  0.00  0.00  0.99  0.01  0.00  0.00  1.00  0.00
  C12                     1.00   0.00  0.00  0.00  0.31  0.68  0.00  0.00  0.91  0.00
  C17                     1.00   0.00  0.00  0.00  0.57  0.43  0.00  0.00  0.98  0.00
  C10                     1.00   0.00  0.00  0.00  0.77  0.23  0.00  0.00  0.98  0.00
  C13                     1.00   0.00  0.00  0.00  0.76  0.24  0.00  0.00  0.76  0.00
  C18                     1.00   0.00  0.00  0.00  0.57  0.43  0.00  0.00  0.98  0.00
  C23                     1.00   0.00  0.00  0.00  0.80  0.20  0.00  0.00  0.96  0.00
  C4                      1.00   0.00  0.00  0.00  0.82  0.18  0.00  0.00  0.98  0.00
  C7                      1.00   0.00  0.00  0.00  0.74  0.26  0.00  0.00  0.83  0.00
  C14                     1.00   0.00  0.00  0.00  0.00  1.00  0.00  0.00  0.39  0.00
  C5                      1.00   0.00  0.00  0.00  0.93  0.07  0.00  0.00  0.93  0.00
  C8                      1.00   0.00  0.00  0.00  0.21  0.79  0.00  0.00  0.00  0.00
  C15                     1.00   0.25  0.00  0.00  0.00  0.75  0.00  0.00  0.00  0.00
  C21                     1.00   0.00  0.00  0.00  0.01  0.99  0.00  0.00  0.00  0.00
  
  
  *************************
  Conduit Surcharge Summary
  *************************
  
  ----------------------------------------------------------------------------
                                                           Hours        Hours 
                         --------- Hours Full --------   Above Full   Capacity
  Conduit                Both Ends  Upstream  Dnstream   Normal Flow   Limited
  ----------------------------------------------------------------------------
  C6                          0.01      1.12      0.01      0.95         0.01
  C10                         0.01      0.01      4.11      0.01         0.01
  C13                         0.01      0.01      4.63      0.01         0.01
  C18                         0.01      0.01      3.88      0.01         0.01
  C23                         0.01      0.01      6.42      0.01         0.01
  C4                          0.01      0.01      8.77      0.01         0.01
  C7                          0.01      0.01      4.48      0.01         0.01
  C5                          1.12      1.21      1.30      1.19         1.06
  C8                          0.01      0.73      0.01      0.75         0.01
  C15                         0.01      1.41      0.01      1.44         0.01
  C21                         0.01      0.68      0.01      0.62         0.01
  

  Analysis begun on:  Tue Sep 21 04:51:55 2021
  Analysis ended on:  Tue Sep 21 04:51:55 2021
  Total elapsed time: < 1 sec