
  EPA STORM WATER MANAGEMENT MODEL - VERSION 5.1 (Build 5.3.0.dev0)
  --------------------------------------------------------------

  WARNING 09: time series interval greater than recording interval for Rain Gage RG1
  WARNING 09: time series interval greater than recording interval for Rain Gage RG2
  WARNING 09: time series interval greater than recording interval for Rain Gage RG3
  WARNING 09: time series interval greater than recording interval for Rain Gage RG4
  
  *********************************************************
  NOTE: The summary statistics displayed in this report are
  based on results found at every computational time step,  
  not just on results from each reporting time step.
  *********************************************************
  
  ****************
  Analysis Options
  ****************
  Flow Units ............... CMS
  Process Models:
    Rainfall/Runoff ........ YES
    RDII ................... NO
    Snowmelt ............... NO
    Groundwater ............ NO
    Flow Routing ........... YES
    Ponding Allowed ........ YES
    Water Quality .......... NO
  Infiltration Method ...... HORTON
  Flow Routing Method ...... DYNWAVE
  Surcharge Method ......... EXTRAN
  Starting Date ............ 08/28/2015 00:00:00
  Ending Date .............. 08/28/2015 23:40:00
  Antecedent Dry Days ...... 0.0
  Report Time Step ......... 00:01:00
  Wet Time Step ............ 00:01:00
  Dry Time Step ............ 00:01:00
  Routing Time Step ........ 5.00 sec
  Variable Time Step ....... YES
  Maximum Trials ........... 8
  Number of Threads ........ 1
  Head Tolerance ........... 0.001500 m
  
  
  **************************        Volume         Depth
  Runoff Quantity Continuity     hectare-m            mm
  **************************     ---------       -------
  Total Precipitation ......         1.321         7.330
  Evaporation Loss .........         0.000         0.000
  Infiltration Loss ........         0.000         0.000
  Surface Runoff ...........         0.846         4.695
  Final Storage ............         0.490         2.719
  Continuity Error (%) .....        -1.137
  
  
  **************************        Volume        Volume
  Flow Routing Continuity        hectare-m      10^6 ltr
  **************************     ---------     ---------
  Dry Weather Inflow .......         0.758         7.576
  Wet Weather Inflow .......         0.831         8.314
  Groundwater Inflow .......         0.000         0.000
  RDII Inflow ..............         0.000         0.000
  External Inflow ..........         0.000         0.000
  External Outflow .........         1.071        10.709
  Flooding Loss ............         0.036         0.362
  Evaporation Loss .........         0.000         0.000
  Exfiltration Loss ........         0.000         0.000
  Initial Stored Volume ....         0.000         0.000
  Final Stored Volume ......         0.411         4.105
  Continuity Error (%) .....         4.490
  
  
  *************************
  Highest Continuity Errors
  *************************
  Node T5 (15.17%)
  Node T6 (13.26%)
  Node T2 (8.28%)
  Node T3 (5.76%)
  Node J11 (5.39%)
  
  
  ***************************
  Time-Step Critical Elements
  ***************************
  None
  
  
  ********************************
  Highest Flow Instability Indexes
  ********************************
  All links are stable.
  
  
  *************************
  Routing Time Step Summary
  *************************
  Minimum Time Step           :     4.50 sec
  Average Time Step           :     5.00 sec
  Maximum Time Step           :     5.00 sec
  Percent in Steady State     :     0.00
  Average Iterations per Step :     2.03
  Percent Not Converging      :     0.04
  
  
  ***************************
  Subcatchment Runoff Summary
  ***************************
  
  ------------------------------------------------------------------------------------------------------------------------------
                            Total      Total      Total      Total     Imperv       Perv      Total       Total     Peak  Runoff
                           Precip      Runon       Evap      Infil     Runoff     Runoff     Runoff      Runoff   Runoff   Coeff
  Subcatchment                 mm         mm         mm         mm         mm         mm         mm    10^6 ltr      CMS
  ------------------------------------------------------------------------------------------------------------------------------
  SC01                       7.28       0.00       0.00       0.00       5.38       0.00       5.38        1.78     1.37   0.739
  SC02                       5.69       0.00       0.00       0.00       3.66       0.00       3.66        0.83     0.79   0.644
  SC03                       7.13       0.00       0.00       0.00       5.53       0.00       5.53        1.00     1.00   0.776
  SC04                       5.69       0.00       0.00       0.00       2.94       0.00       2.94        0.20     0.13   0.516
  SC05                       7.28       0.00       0.00       0.00       5.24       0.00       5.24        0.82     0.60   0.720
  SC06                       9.07       0.00       0.00       0.00       4.63       0.00       4.63        1.51     1.08   0.510
  SC07                       5.69       0.00       0.00       0.00       2.94       0.00       2.94        0.14     0.09   0.517
  SC08                       7.13       0.00       0.00       0.00       4.40       0.00       4.40        1.23     1.07   0.617
  SC09                       9.07       0.00       0.00       0.00       5.60       0.00       5.60        0.39     0.30   0.617
  SC010                      7.28       0.00       0.00       0.00       4.87       0.00       4.87        0.57     0.37   0.669
  
  
  ******************
  Node Depth Summary
  ******************
  
  ---------------------------------------------------------------------------------
                                 Average  Maximum  Maximum  Time of Max    Reported
                                   Depth    Depth      HGL   Occurrence   Max Depth
  Node                 Type       Meters   Meters   Meters  days hr:min      Meters
  ---------------------------------------------------------------------------------
  J1                   JUNCTION     0.05     0.25    34.25     0  23:26        0.25
  J3                   JUNCTION     0.09     0.11    18.11     0  23:40        0.11
  CSO7                 JUNCTION     0.07     1.20    35.20     0  23:36        1.20
  J5                   JUNCTION     0.04     0.14    32.14     0  23:39        0.14
  CSO9                 JUNCTION     0.09     2.00    42.00     0  23:16        2.00
  J8                   JUNCTION     0.07     0.34    36.34     0  23:37        0.34
  CSO8                 JUNCTION     0.07     2.00    34.00     0  23:25        2.00
  J10                  JUNCTION     0.05     0.34    29.34     0  23:37        0.34
  J13                  JUNCTION     0.04     0.23    29.23     0  23:36        0.22
  J15                  JUNCTION     0.13     0.39    15.39     0  23:38        0.39
  J16                  JUNCTION     0.04     0.27    30.27     0  23:26        0.27
  CSO10                JUNCTION     0.07     1.00    31.00     0  23:25        1.00
  J12                  JUNCTION     0.09     0.37    26.37     0  23:38        0.37
  J4                   JUNCTION     0.08     0.27    33.27     0  23:40        0.27
  J6                   JUNCTION     0.05     0.06    25.06     0  02:24        0.06
  J2                   JUNCTION     0.05     0.07    25.07     0  23:40        0.07
  J19                  JUNCTION     0.12     0.16     8.16     0  23:40        0.16
  J9                   JUNCTION     0.08     0.14    29.14     0  23:40        0.14
  J14                  JUNCTION     0.10     0.13    20.13     0  23:40        0.13
  J17                  JUNCTION     0.05     0.09    20.09     0  23:40        0.09
  J7                   JUNCTION     0.05     0.23    39.23     0  23:40        0.23
  J11                  JUNCTION     0.04     0.29    31.29     0  23:40        0.29
  J18                  JUNCTION     0.03     0.16    29.16     0  23:40        0.16
  Out_to_WWTP          OUTFALL      0.12     0.16     6.16     0  23:40        0.16
  T5                   STORAGE      0.81     2.81    29.81     0  23:40        2.81
  T4                   STORAGE      0.15     0.36    27.36     0  23:40        0.36
  T6                   STORAGE      0.26     2.93    33.93     0  23:40        2.93
  T3                   STORAGE      0.51     1.12    23.12     0  23:40        1.12
  T2                   STORAGE      0.11     0.79    21.79     0  23:40        0.79
  T1                   STORAGE      1.17     3.57    13.57     0  23:40        3.57
  
  
  *******************
  Node Inflow Summary
  *******************
  
  -------------------------------------------------------------------------------------------------
                                  Maximum  Maximum                  Lateral       Total        Flow
                                  Lateral    Total  Time of Max      Inflow      Inflow     Balance
                                   Inflow   Inflow   Occurrence      Volume      Volume       Error
  Node                 Type           CMS      CMS  days hr:min    10^6 ltr    10^6 ltr     Percent
  -------------------------------------------------------------------------------------------------
  J1                   JUNCTION     0.606    0.606     0  23:26         1.9         1.9       0.951
  J3                   JUNCTION     0.000    0.132     0  23:40           0        7.23       0.389
  CSO7                 JUNCTION     0.088    0.088     0  23:36       0.702       0.702       0.365
  J5                   JUNCTION     0.126    0.164     0  23:38       0.447        1.13       1.117
  CSO9                 JUNCTION     0.306    0.306     0  23:36       0.761       0.761       0.563
  J8                   JUNCTION     1.089    1.216     0  23:36        3.31        3.98       2.038
  CSO8                 JUNCTION     1.069    1.069     0  23:36        1.65        1.65       0.494
  J10                  JUNCTION     0.997    1.451     0  23:36        1.73        3.09       3.550
  J13                  JUNCTION     0.792    0.792     0  23:36        1.73        1.73       1.089
  J15                  JUNCTION     0.000    1.510     0  23:26           0        12.1       2.388
  J16                  JUNCTION     1.377    1.377     0  23:26        2.83        2.83       1.228
  CSO10                JUNCTION     0.374    0.374     0  23:36       0.834       0.834       0.931
  J12                  JUNCTION     0.000    1.385     0  23:37           0        5.99       3.530
  J4                   JUNCTION     0.000    0.082     0  23:37           0       0.699       2.387
  J6                   JUNCTION     0.000    0.021     0  23:40           0        1.06       0.270
  J2                   JUNCTION     0.000    0.029     0  23:40           0        1.31       0.337
  J19                  JUNCTION     0.000    0.228     0  23:40           0        10.7       0.103
  J9                   JUNCTION     0.000    0.133     0  23:40           0        3.03       0.864
  J14                  JUNCTION     0.000    0.089     0  23:40           0        4.87       0.118
  J17                  JUNCTION     0.000    0.055     0  23:40           0        1.41       0.583
  J7                   JUNCTION     0.000    0.127     0  23:40           0       0.694       3.847
  J11                  JUNCTION     0.000    0.486     0  23:40           0        1.44       5.695
  J18                  JUNCTION     0.000    0.202     0  23:40           0       0.732       3.140
  Out_to_WWTP          OUTFALL      0.000    0.223     0  23:40           0        10.7       0.000
  T5                   STORAGE      0.000    0.548     0  23:26           0        1.88      17.883
  T4                   STORAGE      0.000    0.162     0  23:39           0        1.12       2.304
  T6                   STORAGE      0.000    1.118     0  23:37           0         3.9      15.288
  T3                   STORAGE      0.000    1.301     0  23:38           0        5.79       6.114
  T2                   STORAGE      0.000    0.721     0  23:36           0        1.71       9.026
  T1                   STORAGE      0.000    1.314     0  23:38           0        11.8       5.382
  
  
  **********************
  Node Surcharge Summary
  **********************
  
  Surcharging occurs when water rises above the top of the highest conduit.
  ---------------------------------------------------------------------
                                               Max. Height   Min. Depth
                                   Hours       Above Crown    Below Rim
  Node                 Type      Surcharged         Meters       Meters
  ---------------------------------------------------------------------
  CSO7                 JUNCTION        0.07          0.945        0.000
  CSO9                 JUNCTION        0.39          1.682        0.000
  CSO8                 JUNCTION        0.24          1.547        0.000
  CSO10                JUNCTION        0.26          0.560        0.000
  
  
  *********************
  Node Flooding Summary
  *********************
  
  Flooding refers to all water that overflows a node, whether it ponds or not.
  --------------------------------------------------------------------------
                                                             Total   Maximum
                                 Maximum   Time of Max       Flood    Ponded
                        Hours       Rate    Occurrence      Volume     Depth
  Node                 Flooded       CMS   days hr:min    10^6 ltr    Meters
  --------------------------------------------------------------------------
  CSO7                    0.02     0.025      0  23:36       0.001     0.000
  CSO9                    0.32     0.178      0  23:36       0.063     0.000
  CSO8                    0.21     0.583      0  23:36       0.206     0.000
  CSO10                   0.24     0.173      0  23:26       0.094     0.000
  
  
  **********************
  Storage Volume Summary
  **********************
  
  --------------------------------------------------------------------------------------------------
                         Average     Avg  Evap Exfil       Maximum     Max    Time of Max    Maximum
                          Volume    Pcnt  Pcnt  Pcnt        Volume    Pcnt     Occurrence    Outflow
  Storage Unit           1000 m3    Full  Loss  Loss       1000 m3    Full    days hr:min        CMS
  --------------------------------------------------------------------------------------------------
  T5                       0.081      16     0     0         0.281      56       0  23:40      0.029
  T4                       0.015       3     0     0         0.036       7       0  23:40      0.021
  T6                       0.031       5     0     0         0.351      59       0  23:40      0.133
  T3                       0.263      10     0     0         0.582      22       0  23:40      0.089
  T2                       0.022       2     0     0         0.157      16       0  23:40      0.055
  T1                       0.164      23     0     0         0.500      71       0  23:40      0.228
  
  
  ***********************
  Outfall Loading Summary
  ***********************
  
  -----------------------------------------------------------
                         Flow       Avg       Max       Total
                         Freq      Flow      Flow      Volume
  Outfall Node           Pcnt       CMS       CMS    10^6 ltr
  -----------------------------------------------------------
  Out_to_WWTP           99.44     0.126     0.223      10.709
  -----------------------------------------------------------
  System                99.44     0.126     0.223      10.709
  
  
  ********************
  Link Flow Summary
  ********************
  
  -----------------------------------------------------------------------------
                                 Maximum  Time of Max   Maximum    Max/    Max/
                                  |Flow|   Occurrence   |Veloc|    Full    Full
  Link                 Type          CMS  days hr:min     m/sec    Flow   Depth
  -----------------------------------------------------------------------------
  C1                   CONDUIT     0.028     0  23:40      0.86    0.01    0.09
  C6                   CONDUIT     0.059     0  23:40      1.16    0.94    0.68
  C2                   CONDUIT     0.020     0  02:24      0.92    0.02    0.14
  C9                   CONDUIT     0.127     0  23:40      1.32    0.43    0.57
  C16                  CONDUIT     0.485     0  23:40      1.62    0.05    0.16
  C3                   CONDUIT     0.086     0  23:40      1.64    0.03    0.12
  C19                  CONDUIT     0.048     0  23:40      0.76    0.02    0.24
  C11                  CONDUIT     0.115     0  23:40      1.39    0.01    0.12
  C20                  CONDUIT     1.246     0  23:26      4.53    0.04    0.16
  C22                  CONDUIT     0.202     0  23:40      1.61    0.09    0.34
  C12                  CONDUIT     0.120     0  23:40      0.94    0.01    0.13
  C17                  CONDUIT     1.279     0  23:37      3.59    0.06    0.18
  C10                  CONDUIT     1.118     0  23:37      1.71    0.12    0.61
  C13                  CONDUIT     1.301     0  23:38      1.98    0.08    0.37
  C18                  CONDUIT     0.721     0  23:36      1.95    0.03    0.25
  C23                  CONDUIT     1.314     0  23:38      1.58    0.15    0.63
  C4                   CONDUIT     0.548     0  23:26      1.46    0.13    0.62
  C7                   CONDUIT     0.162     0  23:39      1.47    0.04    0.25
  C14                  CONDUIT     0.223     0  23:40      1.96    0.01    0.08
  C5                   CONDUIT     0.082     0  23:37      1.70    1.40    1.00
  C8                   CONDUIT     0.127     0  23:40      1.83    1.60    0.86
  C15                  CONDUIT     0.486     0  23:40      3.75    1.54    0.82
  C21                  CONDUIT     0.202     0  23:40      1.87    1.16    0.69
  V4                   ORIFICE     0.021     0  23:40                      1.00
  V5                   ORIFICE     0.029     0  23:40                      1.00
  V1                   ORIFICE     0.228     0  23:40                      1.00
  V6                   ORIFICE     0.133     0  23:40                      1.00
  V3                   ORIFICE     0.089     0  23:40                      1.00
  V2                   ORIFICE     0.055     0  23:40                      1.00
  
  
  ***************************
  Flow Classification Summary
  ***************************
  
  -------------------------------------------------------------------------------------
                      Adjusted    ---------- Fraction of Time in Flow Class ---------- 
                       /Actual         Up    Down  Sub   Sup   Up    Down  Norm  Inlet 
  Conduit               Length    Dry  Dry   Dry   Crit  Crit  Crit  Crit  Ltd   Ctrl  
  -------------------------------------------------------------------------------------
  C1                      1.00   0.00  0.00  0.00  0.89  0.11  0.00  0.00  0.98  0.00
  C6                      1.00   0.00  0.00  0.00  0.02  0.98  0.00  0.00  0.00  0.00
  C2                      1.00   0.00  0.00  0.00  0.69  0.31  0.00  0.00  0.98  0.00
  C9                      1.00   0.00  0.00  0.00  1.00  0.00  0.00  0.00  1.00  0.00
  C16                     1.00   0.00  0.00  0.00  0.87  0.13  0.00  0.00  0.72  0.00
  C3                      1.00   0.00  0.00  0.00  0.01  0.98  0.00  0.00  0.01  0.00
  C19                     1.00   0.00  0.00  0.00  1.00  0.00  0.00  0.00  1.00  0.00
  C11                     1.00   0.00  0.00  0.00  0.05  0.95  0.00  0.00  1.00  0.00
  C20                     1.00   0.00  0.00  0.00  0.89  0.11  0.00  0.00  0.98  0.00
  C22                     1.00   0.00  0.00  0.00  0.98  0.02  0.00  0.00  1.00  0.00
  C12                     1.00   0.00  0.00  0.00  0.12  0.88  0.00  0.00  0.91  0.00
  C17                     1.00   0.00  0.00  0.00  0.51  0.49  0.00  0.00  0.97  0.00
  C10                     1.00   0.00  0.00  0.00  0.93  0.07  0.00  0.00  0.98  0.00
  C13                     1.00   0.00  0.00  0.00  0.96  0.04  0.00  0.00  0.97  0.00
  C18                     1.00   0.00  0.00  0.00  0.52  0.48  0.00  0.00  0.98  0.00
  C23                     1.00   0.00  0.00  0.00  0.97  0.03  0.00  0.00  0.98  0.00
  C4                      1.00   0.00  0.00  0.00  0.98  0.02  0.00  0.00  0.99  0.00
  C7                      1.00   0.00  0.00  0.00  0.90  0.10  0.00  0.00  0.96  0.00
  C14                     1.00   0.00  0.00  0.00  0.00  1.00  0.00  0.00  0.68  0.00
  C5                      1.00   0.00  0.00  0.00  0.91  0.09  0.00  0.00  0.97  0.00
  C8                      1.00   0.00  0.00  0.00  0.06  0.94  0.00  0.00  0.01  0.00
  C15                     1.00   0.00  0.00  0.00  0.03  0.97  0.00  0.00  0.03  0.00
  C21                     1.00   0.00  0.00  0.00  0.00  1.00  0.00  0.00  0.00  0.00
  
  
  *************************
  Conduit Surcharge Summary
  *************************
  
  ----------------------------------------------------------------------------
                                                           Hours        Hours 
                         --------- Hours Full --------   Above Full   Capacity
  Conduit                Both Ends  Upstream  Dnstream   Normal Flow   Limited
  ----------------------------------------------------------------------------
  C10                         0.01      0.01      0.13      0.01         0.01
  C23                         0.01      0.01      3.32      0.01         0.01
  C4                          0.01      0.01      5.14      0.01         0.01
  C5                          0.02      0.07      0.02      0.07         0.02
  C8                          0.01      0.39      0.01      0.39         0.01
  C15                         0.01      0.24      0.01      0.24         0.01
  C21                         0.01      0.26      0.01      0.24         0.01
  

  Analysis begun on:  Tue Sep 21 05:53:55 2021
  Analysis ended on:  Tue Sep 21 05:53:56 2021
  Total elapsed time: 00:00:01