
  EPA STORM WATER MANAGEMENT MODEL - VERSION 5.1 (Build 5.3.0.dev0)
  --------------------------------------------------------------

  WARNING 09: time series interval greater than recording interval for Rain Gage RG1
  WARNING 09: time series interval greater than recording interval for Rain Gage RG2
  WARNING 09: time series interval greater than recording interval for Rain Gage RG3
  WARNING 09: time series interval greater than recording interval for Rain Gage RG4
  
  *********************************************************
  NOTE: The summary statistics displayed in this report are
  based on results found at every computational time step,  
  not just on results from each reporting time step.
  *********************************************************
  
  ****************
  Analysis Options
  ****************
  Flow Units ............... CMS
  Process Models:
    Rainfall/Runoff ........ YES
    RDII ................... NO
    Snowmelt ............... NO
    Groundwater ............ NO
    Flow Routing ........... YES
    Ponding Allowed ........ YES
    Water Quality .......... NO
  Infiltration Method ...... HORTON
  Flow Routing Method ...... DYNWAVE
  Surcharge Method ......... EXTRAN
  Starting Date ............ 08/28/2015 00:00:00
  Ending Date .............. 08/28/2015 23:40:00
  Antecedent Dry Days ...... 0.0
  Report Time Step ......... 00:01:00
  Wet Time Step ............ 00:01:00
  Dry Time Step ............ 00:01:00
  Routing Time Step ........ 5.00 sec
  Variable Time Step ....... YES
  Maximum Trials ........... 8
  Number of Threads ........ 1
  Head Tolerance ........... 0.001500 m
  
  
  **************************        Volume         Depth
  Runoff Quantity Continuity     hectare-m            mm
  **************************     ---------       -------
  Total Precipitation ......         0.458         2.540
  Evaporation Loss .........         0.000         0.000
  Infiltration Loss ........         0.000         0.000
  Surface Runoff ...........         0.355         1.969
  Final Storage ............         0.105         0.583
  Continuity Error (%) .....        -0.482
  
  
  **************************        Volume        Volume
  Flow Routing Continuity        hectare-m      10^6 ltr
  **************************     ---------     ---------
  Dry Weather Inflow .......         0.758         7.576
  Wet Weather Inflow .......         0.354         3.537
  Groundwater Inflow .......         0.000         0.000
  RDII Inflow ..............         0.000         0.000
  External Inflow ..........         0.000         0.000
  External Outflow .........         0.775         7.749
  Flooding Loss ............         0.000         0.001
  Evaporation Loss .........         0.000         0.000
  Exfiltration Loss ........         0.000         0.000
  Initial Stored Volume ....         0.000         0.000
  Final Stored Volume ......         0.311         3.112
  Continuity Error (%) .....         2.250
  
  
  *************************
  Highest Continuity Errors
  *************************
  Node T5 (12.71%)
  Node T2 (12.03%)
  Node T3 (9.15%)
  Node T4 (6.14%)
  Node T1 (5.93%)
  
  
  ***************************
  Time-Step Critical Elements
  ***************************
  None
  
  
  ********************************
  Highest Flow Instability Indexes
  ********************************
  All links are stable.
  
  
  *************************
  Routing Time Step Summary
  *************************
  Minimum Time Step           :     4.50 sec
  Average Time Step           :     5.00 sec
  Maximum Time Step           :     5.00 sec
  Percent in Steady State     :     0.00
  Average Iterations per Step :     2.02
  Percent Not Converging      :     0.04
  
  
  ***************************
  Subcatchment Runoff Summary
  ***************************
  
  ------------------------------------------------------------------------------------------------------------------------------
                            Total      Total      Total      Total     Imperv       Perv      Total       Total     Peak  Runoff
                           Precip      Runon       Evap      Infil     Runoff     Runoff     Runoff      Runoff   Runoff   Coeff
  Subcatchment                 mm         mm         mm         mm         mm         mm         mm    10^6 ltr      CMS
  ------------------------------------------------------------------------------------------------------------------------------
  SC01                       2.46       0.00       0.00       0.00       2.01       0.00       2.01        0.66     0.47   0.816
  SC02                       3.03       0.00       0.00       0.00       2.52       0.00       2.52        0.57     0.44   0.831
  SC03                       3.23       0.00       0.00       0.00       2.83       0.00       2.83        0.51     0.45   0.876
  SC04                       3.03       0.00       0.00       0.00       2.03       0.00       2.03        0.14     0.06   0.669
  SC05                       2.46       0.00       0.00       0.00       1.97       0.00       1.97        0.31     0.21   0.802
  SC06                       1.43       0.00       0.00       0.00       0.85       0.00       0.85        0.28     0.06   0.595
  SC07                       3.03       0.00       0.00       0.00       2.03       0.00       2.03        0.10     0.04   0.670
  SC08                       3.23       0.00       0.00       0.00       2.47       0.00       2.47        0.69     0.41   0.764
  SC09                       1.43       0.00       0.00       0.00       1.02       0.00       1.02        0.07     0.02   0.714
  SC010                      2.46       0.00       0.00       0.00       1.88       0.00       1.88        0.22     0.13   0.763
  
  
  ******************
  Node Depth Summary
  ******************
  
  ---------------------------------------------------------------------------------
                                 Average  Maximum  Maximum  Time of Max    Reported
                                   Depth    Depth      HGL   Occurrence   Max Depth
  Node                 Type       Meters   Meters   Meters  days hr:min      Meters
  ---------------------------------------------------------------------------------
  J1                   JUNCTION     0.04     0.15    34.15     0  22:32        0.15
  J3                   JUNCTION     0.08     0.12    18.12     0  23:40        0.12
  CSO7                 JUNCTION     0.06     0.17    34.17     0  22:32        0.17
  J5                   JUNCTION     0.04     0.10    32.10     0  22:38        0.10
  CSO9                 JUNCTION     0.06     0.12    40.12     0  22:33        0.12
  J8                   JUNCTION     0.06     0.10    36.10     0  22:40        0.10
  CSO8                 JUNCTION     0.04     2.00    34.00     0  22:51        1.09
  J10                  JUNCTION     0.04     0.24    29.24     0  22:56        0.24
  J13                  JUNCTION     0.03     0.19    29.19     0  22:32        0.19
  J15                  JUNCTION     0.10     0.24    15.24     0  22:36        0.24
  J16                  JUNCTION     0.03     0.16    30.16     0  22:32        0.16
  CSO10                JUNCTION     0.05     0.30    30.30     0  22:32        0.30
  J12                  JUNCTION     0.08     0.26    26.26     0  22:59        0.26
  J4                   JUNCTION     0.07     0.16    33.16     0  22:40        0.16
  J6                   JUNCTION     0.04     0.08    25.08     0  23:40        0.08
  J2                   JUNCTION     0.04     0.06    25.06     0  23:40        0.06
  J19                  JUNCTION     0.10     0.15     8.15     0  23:40        0.15
  J9                   JUNCTION     0.07     0.09    29.09     0  13:08        0.09
  J14                  JUNCTION     0.08     0.14    20.14     0  23:40        0.14
  J17                  JUNCTION     0.04     0.10    20.10     0  23:24        0.10
  J7                   JUNCTION     0.04     0.08    39.08     0  22:42        0.08
  J11                  JUNCTION     0.03     0.25    31.25     0  22:57        0.25
  J18                  JUNCTION     0.03     0.12    29.12     0  22:34        0.12
  Out_to_WWTP          OUTFALL      0.10     0.15     6.15     0  23:40        0.15
  T5                   STORAGE      0.61     1.68    28.68     0  23:40        1.68
  T4                   STORAGE      0.13     0.76    27.76     0  23:40        0.76
  T6                   STORAGE      0.19     0.40    31.40     0  13:04        0.40
  T3                   STORAGE      0.34     1.44    23.44     0  23:40        1.44
  T2                   STORAGE      0.10     0.97    21.97     0  23:22        0.97
  T1                   STORAGE      0.76     3.00    13.00     0  23:40        3.00
  
  
  *******************
  Node Inflow Summary
  *******************
  
  -------------------------------------------------------------------------------------------------
                                  Maximum  Maximum                  Lateral       Total        Flow
                                  Lateral    Total  Time of Max      Inflow      Inflow     Balance
                                   Inflow   Inflow   Occurrence      Volume      Volume       Error
  Node                 Type           CMS      CMS  days hr:min    10^6 ltr    10^6 ltr     Percent
  -------------------------------------------------------------------------------------------------
  J1                   JUNCTION     0.210    0.210     0  22:31         1.4         1.4       0.231
  J3                   JUNCTION     0.000    0.154     0  23:40           0        5.51       0.596
  CSO7                 JUNCTION     0.041    0.041     0  22:31       0.661       0.661       0.104
  J5                   JUNCTION     0.058    0.078     0  22:37       0.387        1.04       0.331
  CSO9                 JUNCTION     0.021    0.021     0  22:31       0.452       0.452       0.096
  J8                   JUNCTION     0.071    0.085     0  22:37        2.11        2.56       0.246
  CSO8                 JUNCTION     0.412    0.412     0  22:51        1.14        1.14       0.108
  J10                  JUNCTION     0.457    0.634     0  22:56        1.26        2.37       0.843
  J13                  JUNCTION     0.442    0.442     0  22:31        1.48        1.48      -0.132
  J15                  JUNCTION     0.000    0.600     0  22:32           0         8.8       1.160
  J16                  JUNCTION     0.472    0.472     0  22:31        1.74        1.74       0.294
  CSO10                JUNCTION     0.129    0.129     0  22:31        0.49        0.49       0.282
  J12                  JUNCTION     0.000    0.654     0  22:57           0         4.8       0.930
  J4                   JUNCTION     0.000    0.040     0  22:32           0        0.66       0.807
  J6                   JUNCTION     0.000    0.031     0  23:40           0       0.899       0.491
  J2                   JUNCTION     0.000    0.023     0  23:40           0        1.05       0.373
  J19                  JUNCTION     0.000    0.209     0  23:40           0        7.76       0.135
  J9                   JUNCTION     0.000    0.048     0  13:04           0        2.46       0.477
  J14                  JUNCTION     0.000    0.101     0  23:40           0        3.57       0.180
  J17                  JUNCTION     0.000    0.061     0  23:22           0        1.11       0.870
  J7                   JUNCTION     0.000    0.021     0  22:37           0       0.451       0.707
  J11                  JUNCTION     0.000    0.406     0  22:51           0        1.13       2.180
  J18                  JUNCTION     0.000    0.122     0  22:32           0       0.489       1.017
  Out_to_WWTP          OUTFALL      0.000    0.209     0  23:40           0        7.75       0.000
  T5                   STORAGE      0.000    0.190     0  22:32           0         1.4      14.564
  T4                   STORAGE      0.000    0.078     0  22:38           0        1.04       6.539
  T6                   STORAGE      0.000    0.083     0  22:41           0        2.55       1.833
  T3                   STORAGE      0.000    0.604     0  22:59           0        4.75      10.075
  T2                   STORAGE      0.000    0.426     0  22:32           0        1.48      13.669
  T1                   STORAGE      0.000    0.507     0  22:37           0        8.69       6.303
  
  
  **********************
  Node Surcharge Summary
  **********************
  
  Surcharging occurs when water rises above the top of the highest conduit.
  ---------------------------------------------------------------------
                                               Max. Height   Min. Depth
                                   Hours       Above Crown    Below Rim
  Node                 Type      Surcharged         Meters       Meters
  ---------------------------------------------------------------------
  CSO8                 JUNCTION        0.13          1.547        0.000
  
  
  *********************
  Node Flooding Summary
  *********************
  
  Flooding refers to all water that overflows a node, whether it ponds or not.
  --------------------------------------------------------------------------
                                                             Total   Maximum
                                 Maximum   Time of Max       Flood    Ponded
                        Hours       Rate    Occurrence      Volume     Depth
  Node                 Flooded       CMS   days hr:min    10^6 ltr    Meters
  --------------------------------------------------------------------------
  CSO8                    0.01     0.120      0  22:51       0.001     0.000
  
  
  **********************
  Storage Volume Summary
  **********************
  
  --------------------------------------------------------------------------------------------------
                         Average     Avg  Evap Exfil       Maximum     Max    Time of Max    Maximum
                          Volume    Pcnt  Pcnt  Pcnt        Volume    Pcnt     Occurrence    Outflow
  Storage Unit           1000 m3    Full  Loss  Loss       1000 m3    Full    days hr:min        CMS
  --------------------------------------------------------------------------------------------------
  T5                       0.061      12     0     0         0.168      34       0  23:40      0.023
  T4                       0.013       3     0     0         0.076      15       0  23:40      0.031
  T6                       0.023       4     0     0         0.048       8       0  13:04      0.048
  T3                       0.179       7     0     0         0.748      29       0  23:40      0.101
  T2                       0.019       2     0     0         0.194      19       0  23:22      0.061
  T1                       0.107      15     0     0         0.420      60       0  23:40      0.209
  
  
  ***********************
  Outfall Loading Summary
  ***********************
  
  -----------------------------------------------------------
                         Flow       Avg       Max       Total
                         Freq      Flow      Flow      Volume
  Outfall Node           Pcnt       CMS       CMS    10^6 ltr
  -----------------------------------------------------------
  Out_to_WWTP           99.43     0.091     0.209       7.749
  -----------------------------------------------------------
  System                99.43     0.091     0.209       7.749
  
  
  ********************
  Link Flow Summary
  ********************
  
  -----------------------------------------------------------------------------
                                 Maximum  Time of Max   Maximum    Max/    Max/
                                  |Flow|   Occurrence   |Veloc|    Full    Full
  Link                 Type          CMS  days hr:min     m/sec    Flow   Depth
  -----------------------------------------------------------------------------
  C1                   CONDUIT     0.023     0  23:40      0.74    0.01    0.09
  C6                   CONDUIT     0.032     0  22:41      1.10    0.51    0.43
  C2                   CONDUIT     0.031     0  23:40      0.99    0.04    0.17
  C9                   CONDUIT     0.018     0  22:42      0.73    0.06    0.18
  C16                  CONDUIT     0.333     0  22:57      1.55    0.03    0.12
  C3                   CONDUIT     0.101     0  23:40      1.67    0.04    0.13
  C19                  CONDUIT     0.061     0  23:24      0.92    0.02    0.16
  C11                  CONDUIT     0.154     0  23:40      1.39    0.01    0.08
  C20                  CONDUIT     0.427     0  22:32      2.92    0.01    0.10
  C22                  CONDUIT     0.110     0  22:34      1.35    0.05    0.22
  C12                  CONDUIT     0.048     0  13:08      0.95    0.00    0.09
  C17                  CONDUIT     0.612     0  22:57      2.91    0.03    0.12
  C10                  CONDUIT     0.083     0  22:41      0.94    0.01    0.16
  C13                  CONDUIT     0.604     0  22:59      1.06    0.04    0.39
  C18                  CONDUIT     0.426     0  22:32      3.98    0.02    0.26
  C23                  CONDUIT     0.507     0  22:37      0.86    0.06    0.58
  C4                   CONDUIT     0.190     0  22:32      1.13    0.05    0.57
  C7                   CONDUIT     0.078     0  22:38      2.11    0.02    0.41
  C14                  CONDUIT     0.209     0  23:40      1.92    0.01    0.08
  C5                   CONDUIT     0.040     0  22:32      1.56    0.68    0.59
  C8                   CONDUIT     0.021     0  22:37      1.12    0.26    0.31
  C15                  CONDUIT     0.406     0  22:51      3.53    1.29    0.77
  C21                  CONDUIT     0.122     0  22:32      1.75    0.70    0.47
  V4                   ORIFICE     0.031     0  23:40                      1.00
  V5                   ORIFICE     0.023     0  23:40                      1.00
  V1                   ORIFICE     0.209     0  23:40                      1.00
  V6                   ORIFICE     0.048     0  13:04                      1.00
  V3                   ORIFICE     0.101     0  23:40                      1.00
  V2                   ORIFICE     0.061     0  23:22                      1.00
  
  
  ***************************
  Flow Classification Summary
  ***************************
  
  -------------------------------------------------------------------------------------
                      Adjusted    ---------- Fraction of Time in Flow Class ---------- 
                       /Actual         Up    Down  Sub   Sup   Up    Down  Norm  Inlet 
  Conduit               Length    Dry  Dry   Dry   Crit  Crit  Crit  Crit  Ltd   Ctrl  
  -------------------------------------------------------------------------------------
  C1                      1.00   0.00  0.00  0.00  0.91  0.09  0.00  0.00  0.97  0.00
  C6                      1.00   0.00  0.00  0.00  0.01  0.99  0.00  0.00  0.00  0.00
  C2                      1.00   0.00  0.00  0.00  0.44  0.56  0.00  0.00  0.97  0.00
  C9                      1.00   0.00  0.00  0.00  1.00  0.00  0.00  0.00  1.00  0.00
  C16                     1.00   0.00  0.34  0.00  0.61  0.05  0.00  0.00  0.59  0.00
  C3                      1.00   0.00  0.00  0.00  0.04  0.96  0.00  0.00  0.07  0.00
  C19                     1.00   0.00  0.00  0.00  1.00  0.00  0.00  0.00  1.00  0.00
  C11                     1.00   0.00  0.00  0.00  0.05  0.95  0.00  0.00  1.00  0.00
  C20                     1.00   0.00  0.00  0.00  0.94  0.06  0.00  0.00  0.99  0.00
  C22                     1.00   0.00  0.00  0.00  0.99  0.01  0.00  0.00  1.00  0.00
  C12                     1.00   0.00  0.00  0.00  0.11  0.89  0.00  0.00  0.81  0.00
  C17                     1.00   0.00  0.00  0.00  0.58  0.42  0.00  0.00  0.98  0.00
  C10                     1.00   0.00  0.00  0.00  0.77  0.23  0.00  0.00  0.98  0.00
  C13                     1.00   0.00  0.00  0.00  0.76  0.24  0.00  0.00  0.92  0.00
  C18                     1.00   0.00  0.00  0.00  0.33  0.67  0.00  0.00  0.97  0.00
  C23                     1.00   0.00  0.00  0.00  0.80  0.20  0.00  0.00  0.96  0.00
  C4                      1.00   0.00  0.00  0.00  0.82  0.18  0.00  0.00  0.98  0.00
  C7                      1.00   0.00  0.00  0.00  0.71  0.29  0.00  0.00  0.83  0.00
  C14                     1.00   0.00  0.00  0.00  0.00  1.00  0.00  0.00  0.54  0.00
  C5                      1.00   0.00  0.00  0.00  0.95  0.05  0.00  0.00  0.98  0.00
  C8                      1.00   0.00  0.00  0.00  0.16  0.84  0.00  0.00  0.00  0.00
  C15                     1.00   0.34  0.06  0.00  0.03  0.56  0.00  0.00  0.18  0.00
  C21                     1.00   0.00  0.00  0.00  0.00  1.00  0.00  0.00  0.00  0.00
  
  
  *************************
  Conduit Surcharge Summary
  *************************
  
  ----------------------------------------------------------------------------
                                                           Hours        Hours 
                         --------- Hours Full --------   Above Full   Capacity
  Conduit                Both Ends  Upstream  Dnstream   Normal Flow   Limited
  ----------------------------------------------------------------------------
  C23                         0.01      0.01      0.98      0.01         0.01
  C4                          0.01      0.01      3.26      0.01         0.01
  C15                         0.01      0.13      0.01      0.14         0.01
  

  Analysis begun on:  Tue Sep 21 06:01:07 2021
  Analysis ended on:  Tue Sep 21 06:01:08 2021
  Total elapsed time: 00:00:01