
  EPA STORM WATER MANAGEMENT MODEL - VERSION 5.1 (Build 5.3.0.dev0)
  --------------------------------------------------------------

  WARNING 09: time series interval greater than recording interval for Rain Gage RG1
  WARNING 09: time series interval greater than recording interval for Rain Gage RG2
  WARNING 09: time series interval greater than recording interval for Rain Gage RG3
  WARNING 09: time series interval greater than recording interval for Rain Gage RG4
  
  *********************************************************
  NOTE: The summary statistics displayed in this report are
  based on results found at every computational time step,  
  not just on results from each reporting time step.
  *********************************************************
  
  ****************
  Analysis Options
  ****************
  Flow Units ............... CMS
  Process Models:
    Rainfall/Runoff ........ YES
    RDII ................... NO
    Snowmelt ............... NO
    Groundwater ............ NO
    Flow Routing ........... YES
    Ponding Allowed ........ YES
    Water Quality .......... NO
  Infiltration Method ...... HORTON
  Flow Routing Method ...... DYNWAVE
  Surcharge Method ......... EXTRAN
  Starting Date ............ 08/28/2015 00:00:00
  Ending Date .............. 08/28/2015 23:40:00
  Antecedent Dry Days ...... 0.0
  Report Time Step ......... 00:01:00
  Wet Time Step ............ 00:01:00
  Dry Time Step ............ 00:01:00
  Routing Time Step ........ 5.00 sec
  Variable Time Step ....... YES
  Maximum Trials ........... 8
  Number of Threads ........ 1
  Head Tolerance ........... 0.001500 m
  
  
  **************************        Volume         Depth
  Runoff Quantity Continuity     hectare-m            mm
  **************************     ---------       -------
  Total Precipitation ......         1.875        10.407
  Evaporation Loss .........         0.000         0.000
  Infiltration Loss ........         0.000         0.000
  Surface Runoff ...........         1.862        10.334
  Final Storage ............         0.015         0.081
  Continuity Error (%) .....        -0.084
  
  
  **************************        Volume        Volume
  Flow Routing Continuity        hectare-m      10^6 ltr
  **************************     ---------     ---------
  Dry Weather Inflow .......         0.758         7.576
  Wet Weather Inflow .......         1.862        18.622
  Groundwater Inflow .......         0.000         0.000
  RDII Inflow ..............         0.000         0.000
  External Inflow ..........         0.000         0.000
  External Outflow .........         1.983        19.833
  Flooding Loss ............         0.482         4.816
  Evaporation Loss .........         0.000         0.000
  Exfiltration Loss ........         0.000         0.000
  Initial Stored Volume ....         0.000         0.000
  Final Stored Volume ......         0.147         1.471
  Continuity Error (%) .....         0.296
  
  
  *************************
  Highest Continuity Errors
  *************************
  Node T5 (6.43%)
  Node T3 (1.79%)
  Node T1 (1.18%)
  
  
  ***************************
  Time-Step Critical Elements
  ***************************
  None
  
  
  ********************************
  Highest Flow Instability Indexes
  ********************************
  All links are stable.
  
  
  *************************
  Routing Time Step Summary
  *************************
  Minimum Time Step           :     4.50 sec
  Average Time Step           :     5.00 sec
  Maximum Time Step           :     5.00 sec
  Percent in Steady State     :     0.00
  Average Iterations per Step :     2.00
  Percent Not Converging      :     0.00
  
  
  ***************************
  Subcatchment Runoff Summary
  ***************************
  
  ------------------------------------------------------------------------------------------------------------------------------
                            Total      Total      Total      Total     Imperv       Perv      Total       Total     Peak  Runoff
                           Precip      Runon       Evap      Infil     Runoff     Runoff     Runoff      Runoff   Runoff   Coeff
  Subcatchment                 mm         mm         mm         mm         mm         mm         mm    10^6 ltr      CMS
  ------------------------------------------------------------------------------------------------------------------------------
  SC01                      13.58       0.00       0.00       0.00      13.53       0.00      13.53        4.47     0.52   0.996
  SC02                      12.42       0.00       0.00       0.00      12.36       0.00      12.36        2.81     0.27   0.996
  SC03                       7.06       0.00       0.00       0.00       7.01       0.00       7.01        1.26     0.15   0.993
  SC04                      12.42       0.00       0.00       0.00      12.32       0.00      12.32        0.85     0.06   0.992
  SC05                      13.58       0.00       0.00       0.00      13.53       0.00      13.53        2.11     0.23   0.996
  SC06                       7.70       0.00       0.00       0.00       7.58       0.00       7.58        2.47     0.20   0.984
  SC07                      12.42       0.00       0.00       0.00      12.32       0.00      12.32        0.59     0.04   0.992
  SC08                       7.06       0.00       0.00       0.00       6.99       0.00       6.99        1.96     0.20   0.990
  SC09                       7.70       0.00       0.00       0.00       7.62       0.00       7.62        0.53     0.05   0.989
  SC010                     13.58       0.00       0.00       0.00      13.51       0.00      13.51        1.59     0.16   0.995
  
  
  ******************
  Node Depth Summary
  ******************
  
  ---------------------------------------------------------------------------------
                                 Average  Maximum  Maximum  Time of Max    Reported
                                   Depth    Depth      HGL   Occurrence   Max Depth
  Node                 Type       Meters   Meters   Meters  days hr:min      Meters
  ---------------------------------------------------------------------------------
  J1                   JUNCTION     0.06     0.16    34.16     0  13:02        0.16
  J3                   JUNCTION     0.12     0.14    18.14     0  14:44        0.14
  CSO7                 JUNCTION     0.08     0.18    34.18     0  13:11        0.18
  J5                   JUNCTION     0.05     0.11    32.11     0  13:17        0.11
  CSO9                 JUNCTION     0.08     0.19    40.19     0  03:26        0.19
  J8                   JUNCTION     0.08     0.16    36.16     0  03:28        0.16
  CSO8                 JUNCTION     0.08     0.28    32.28     0  03:06        0.27
  J10                  JUNCTION     0.06     0.17    29.17     0  03:08        0.17
  J13                  JUNCTION     0.05     0.14    29.14     0  13:12        0.14
  J15                  JUNCTION     0.18     0.30    15.30     0  13:04        0.30
  J16                  JUNCTION     0.06     0.17    30.17     0  12:42        0.17
  CSO10                JUNCTION     0.10     0.36    30.36     0  13:01        0.36
  J12                  JUNCTION     0.11     0.21    26.21     0  03:14        0.21
  J4                   JUNCTION     0.10     0.21    33.21     0  13:18        0.21
  J6                   JUNCTION     0.07     0.09    25.09     0  14:02        0.09
  J2                   JUNCTION     0.07     0.08    25.08     0  13:45        0.08
  J19                  JUNCTION     0.16     0.17     8.17     0  04:05        0.17
  J9                   JUNCTION     0.09     0.13    29.13     0  04:10        0.13
  J14                  JUNCTION     0.14     0.16    20.16     0  15:35        0.16
  J17                  JUNCTION     0.08     0.11    20.11     0  05:22        0.11
  J7                   JUNCTION     0.06     0.13    39.13     0  03:29        0.13
  J11                  JUNCTION     0.06     0.18    31.18     0  03:08        0.18
  J18                  JUNCTION     0.05     0.14    29.14     0  13:03        0.14
  Out_to_WWTP          OUTFALL      0.16     0.17     6.17     0  17:21        0.17
  T5                   STORAGE      3.23     5.00    32.00     0  12:56        5.00
  T4                   STORAGE      0.68     1.45    28.45     0  14:00        1.45
  T6                   STORAGE      0.78     2.21    33.21     0  04:08        2.21
  T3                   STORAGE      1.77     2.45    24.45     0  15:22        2.45
  T2                   STORAGE      0.64     1.30    22.30     0  05:20        1.30
  T1                   STORAGE      4.01     5.00    15.00     0  04:04        5.00
  
  
  *******************
  Node Inflow Summary
  *******************
  
  -------------------------------------------------------------------------------------------------
                                  Maximum  Maximum                  Lateral       Total        Flow
                                  Lateral    Total  Time of Max      Inflow      Inflow     Balance
                                   Inflow   Inflow   Occurrence      Volume      Volume       Error
  Node                 Type           CMS      CMS  days hr:min    10^6 ltr    10^6 ltr     Percent
  -------------------------------------------------------------------------------------------------
  J1                   JUNCTION     0.254    0.254     0  13:01         3.2         3.2      -0.051
  J3                   JUNCTION     0.000    0.210     0  14:41           0        13.9       0.176
  CSO7                 JUNCTION     0.051    0.051     0  13:11        1.15        1.15       0.011
  J5                   JUNCTION     0.062    0.106     0  13:16         1.1        2.25      -0.028
  CSO9                 JUNCTION     0.050    0.050     0  03:26       0.907       0.907       0.009
  J8                   JUNCTION     0.207    0.250     0  03:26         4.3         5.2      -0.035
  CSO8                 JUNCTION     0.202    0.202     0  03:06         2.4         2.4      -0.006
  J10                  JUNCTION     0.157    0.320     0  03:06        2.01        4.42      -0.015
  J13                  JUNCTION     0.290    0.290     0  13:11        3.72        3.72      -0.186
  J15                  JUNCTION     0.000    0.857     0  13:02           0          25       0.197
  J16                  JUNCTION     0.545    0.545     0  12:41        5.54        5.54      -0.067
  CSO10                JUNCTION     0.166    0.166     0  13:01        1.86        1.86      -0.003
  J12                  JUNCTION     0.000    0.391     0  03:12           0        9.61      -0.090
  J4                   JUNCTION     0.000    0.050     0  13:11           0        1.15       0.099
  J6                   JUNCTION     0.000    0.043     0  14:01           0        2.24       0.008
  J2                   JUNCTION     0.000    0.039     0  12:57           0        2.57       0.159
  J19                  JUNCTION     0.000    0.271     0  04:04           0        19.8       0.042
  J9                   JUNCTION     0.000    0.116     0  04:08           0         5.2       0.077
  J14                  JUNCTION     0.000    0.132     0  15:22           0        9.09       0.056
  J17                  JUNCTION     0.000    0.071     0  05:20           0        3.72       0.016
  J7                   JUNCTION     0.000    0.048     0  03:27           0       0.907       0.099
  J11                  JUNCTION     0.000    0.200     0  03:06           0         2.4       0.026
  J18                  JUNCTION     0.000    0.156     0  13:02           0        1.86      -0.033
  Out_to_WWTP          OUTFALL      0.000    0.271     0  04:05           0        19.8       0.000
  T5                   STORAGE      0.000    0.235     0  13:02           0         3.2       6.876
  T4                   STORAGE      0.000    0.104     0  13:17           0        2.25       0.058
  T6                   STORAGE      0.000    0.239     0  03:28           0        5.21       0.098
  T3                   STORAGE      0.000    0.385     0  03:14           0        9.62       1.828
  T2                   STORAGE      0.000    0.270     0  13:12           0        3.73       0.201
  T1                   STORAGE      0.000    0.795     0  13:04           0        24.9       1.191
  
  
  **********************
  Node Surcharge Summary
  **********************
  
  No nodes were surcharged.
  
  
  *********************
  Node Flooding Summary
  *********************
  
  Flooding refers to all water that overflows a node, whether it ponds or not.
  --------------------------------------------------------------------------
                                                             Total   Maximum
                                 Maximum   Time of Max       Flood    Ponded
                        Hours       Rate    Occurrence      Volume     Depth
  Node                 Flooded       CMS   days hr:min    10^6 ltr    Meters
  --------------------------------------------------------------------------
  T5                      1.06     0.196      0  13:02       0.227     0.000
  T1                     12.54     0.524      0  13:04       4.590     0.000
  
  
  **********************
  Storage Volume Summary
  **********************
  
  --------------------------------------------------------------------------------------------------
                         Average     Avg  Evap Exfil       Maximum     Max    Time of Max    Maximum
                          Volume    Pcnt  Pcnt  Pcnt        Volume    Pcnt     Occurrence    Outflow
  Storage Unit           1000 m3    Full  Loss  Loss       1000 m3    Full    days hr:min        CMS
  --------------------------------------------------------------------------------------------------
  T5                       0.323      65     0     0         0.500     100       0  12:56      0.039
  T4                       0.068      14     0     0         0.145      29       0  14:00      0.043
  T6                       0.093      16     0     0         0.265      44       0  04:08      0.116
  T3                       0.922      35     0     0         1.274      49       0  15:22      0.132
  T2                       0.129      13     0     0         0.260      26       0  05:20      0.071
  T1                       0.562      80     0     0         0.700     100       0  04:04      0.271
  
  
  ***********************
  Outfall Loading Summary
  ***********************
  
  -----------------------------------------------------------
                         Flow       Avg       Max       Total
                         Freq      Flow      Flow      Volume
  Outfall Node           Pcnt       CMS       CMS    10^6 ltr
  -----------------------------------------------------------
  Out_to_WWTP           99.45     0.234     0.271      19.833
  -----------------------------------------------------------
  System                99.45     0.234     0.271      19.833
  
  
  ********************
  Link Flow Summary
  ********************
  
  -----------------------------------------------------------------------------
                                 Maximum  Time of Max   Maximum    Max/    Max/
                                  |Flow|   Occurrence   |Veloc|    Full    Full
  Link                 Type          CMS  days hr:min     m/sec    Flow   Depth
  -----------------------------------------------------------------------------
  C1                   CONDUIT     0.039     0  13:44      0.86    0.01    0.11
  C6                   CONDUIT     0.047     0  13:18      1.23    0.75    0.53
  C2                   CONDUIT     0.043     0  14:02      1.16    0.05    0.19
  C9                   CONDUIT     0.045     0  03:29      0.93    0.15    0.29
  C16                  CONDUIT     0.180     0  03:08      1.31    0.02    0.09
  C3                   CONDUIT     0.132     0  15:23      1.83    0.05    0.15
  C19                  CONDUIT     0.071     0  05:22      0.96    0.02    0.20
  C11                  CONDUIT     0.210     0  14:44      1.71    0.01    0.11
  C20                  CONDUIT     0.488     0  12:42      2.90    0.02    0.12
  C22                  CONDUIT     0.145     0  13:03      1.30    0.07    0.27
  C12                  CONDUIT     0.116     0  04:10      1.21    0.01    0.08
  C17                  CONDUIT     0.305     0  03:08      2.05    0.02    0.09
  C10                  CONDUIT     0.239     0  03:28      1.04    0.02    0.55
  C13                  CONDUIT     0.385     0  03:14      1.49    0.02    0.54
  C18                  CONDUIT     0.270     0  13:12      1.35    0.01    0.34
  C23                  CONDUIT     0.795     0  13:04      1.19    0.09    0.60
  C4                   CONDUIT     0.235     0  13:02      1.17    0.06    0.58
  C7                   CONDUIT     0.104     0  13:17      1.04    0.03    0.56
  C14                  CONDUIT     0.271     0  04:05      2.08    0.02    0.09
  C5                   CONDUIT     0.050     0  13:11      1.30    0.85    0.76
  C8                   CONDUIT     0.048     0  03:27      1.21    0.60    0.50
  C15                  CONDUIT     0.200     0  03:06      2.47    0.63    0.50
  C21                  CONDUIT     0.156     0  13:02      1.88    0.89    0.56
  V4                   ORIFICE     0.043     0  14:01                      1.00
  V5                   ORIFICE     0.039     0  12:57                      1.00
  V1                   ORIFICE     0.271     0  04:04                      1.00
  V6                   ORIFICE     0.116     0  04:08                      1.00
  V3                   ORIFICE     0.132     0  15:22                      1.00
  V2                   ORIFICE     0.071     0  05:20                      1.00
  
  
  ***************************
  Flow Classification Summary
  ***************************
  
  -------------------------------------------------------------------------------------
                      Adjusted    ---------- Fraction of Time in Flow Class ---------- 
                       /Actual         Up    Down  Sub   Sup   Up    Down  Norm  Inlet 
  Conduit               Length    Dry  Dry   Dry   Crit  Crit  Crit  Crit  Ltd   Ctrl  
  -------------------------------------------------------------------------------------
  C1                      1.00   0.00  0.00  0.00  0.71  0.29  0.00  0.00  0.97  0.00
  C6                      1.00   0.00  0.00  0.00  0.01  0.99  0.00  0.00  0.00  0.00
  C2                      1.00   0.00  0.00  0.00  0.35  0.65  0.00  0.00  0.97  0.00
  C9                      1.00   0.00  0.00  0.00  1.00  0.00  0.00  0.00  1.00  0.00
  C16                     1.00   0.00  0.04  0.00  0.51  0.45  0.00  0.00  0.38  0.00
  C3                      1.00   0.00  0.00  0.00  0.05  0.94  0.00  0.00  0.08  0.00
  C19                     1.00   0.00  0.00  0.00  0.98  0.01  0.00  0.00  1.00  0.00
  C11                     1.00   0.00  0.00  0.00  0.13  0.87  0.00  0.00  1.00  0.00
  C20                     1.00   0.00  0.00  0.00  0.73  0.27  0.00  0.00  0.99  0.00
  C22                     1.00   0.00  0.00  0.00  0.99  0.01  0.00  0.00  1.00  0.00
  C12                     1.00   0.00  0.00  0.00  0.21  0.79  0.00  0.00  0.83  0.00
  C17                     1.00   0.00  0.00  0.00  0.60  0.40  0.00  0.00  0.99  0.00
  C10                     1.00   0.00  0.00  0.00  0.88  0.12  0.00  0.00  0.97  0.00
  C13                     1.00   0.00  0.00  0.00  0.92  0.08  0.00  0.00  0.93  0.00
  C18                     1.00   0.00  0.00  0.00  0.82  0.18  0.00  0.00  0.98  0.00
  C23                     1.00   0.00  0.00  0.00  0.95  0.04  0.00  0.00  0.97  0.00
  C4                      1.00   0.00  0.00  0.00  0.96  0.04  0.00  0.00  0.98  0.00
  C7                      1.00   0.00  0.00  0.00  0.89  0.11  0.00  0.00  0.97  0.00
  C14                     1.00   0.00  0.00  0.00  0.00  1.00  0.00  0.00  0.20  0.00
  C5                      1.00   0.00  0.00  0.00  0.87  0.13  0.00  0.00  0.98  0.00
  C8                      1.00   0.00  0.00  0.00  0.10  0.90  0.00  0.00  0.01  0.00
  C15                     1.00   0.04  0.00  0.00  0.01  0.96  0.00  0.00  0.02  0.00
  C21                     1.00   0.00  0.00  0.00  0.00  1.00  0.00  0.00  0.00  0.00
  
  
  *************************
  Conduit Surcharge Summary
  *************************
  
  ----------------------------------------------------------------------------
                                                           Hours        Hours 
                         --------- Hours Full --------   Above Full   Capacity
  Conduit                Both Ends  Upstream  Dnstream   Normal Flow   Limited
  ----------------------------------------------------------------------------
  C10                         0.01      0.01      2.49      0.01         0.01
  C13                         0.01      0.01     14.53      0.01         0.01
  C23                         0.01      0.01     21.48      0.01         0.01
  C4                          0.01      0.01     21.17      0.01         0.01
  C7                          0.01      0.01      7.56      0.01         0.01
  

  Analysis begun on:  Tue Sep 21 02:41:13 2021
  Analysis ended on:  Tue Sep 21 02:41:14 2021
  Total elapsed time: 00:00:01