
  EPA STORM WATER MANAGEMENT MODEL - VERSION 5.1 (Build 5.3.0.dev0)
  --------------------------------------------------------------

  WARNING 09: time series interval greater than recording interval for Rain Gage RG1
  WARNING 09: time series interval greater than recording interval for Rain Gage RG2
  WARNING 09: time series interval greater than recording interval for Rain Gage RG3
  WARNING 09: time series interval greater than recording interval for Rain Gage RG4
  
  *********************************************************
  NOTE: The summary statistics displayed in this report are
  based on results found at every computational time step,  
  not just on results from each reporting time step.
  *********************************************************
  
  ****************
  Analysis Options
  ****************
  Flow Units ............... CMS
  Process Models:
    Rainfall/Runoff ........ YES
    RDII ................... NO
    Snowmelt ............... NO
    Groundwater ............ NO
    Flow Routing ........... YES
    Ponding Allowed ........ YES
    Water Quality .......... NO
  Infiltration Method ...... HORTON
  Flow Routing Method ...... DYNWAVE
  Surcharge Method ......... EXTRAN
  Starting Date ............ 08/28/2015 00:00:00
  Ending Date .............. 08/28/2015 23:40:00
  Antecedent Dry Days ...... 0.0
  Report Time Step ......... 00:01:00
  Wet Time Step ............ 00:01:00
  Dry Time Step ............ 00:01:00
  Routing Time Step ........ 5.00 sec
  Variable Time Step ....... YES
  Maximum Trials ........... 8
  Number of Threads ........ 1
  Head Tolerance ........... 0.001500 m
  
  
  **************************        Volume         Depth
  Runoff Quantity Continuity     hectare-m            mm
  **************************     ---------       -------
  Total Precipitation ......         1.842        10.224
  Evaporation Loss .........         0.000         0.000
  Infiltration Loss ........         0.000         0.000
  Surface Runoff ...........         1.607         8.916
  Final Storage ............         0.240         1.333
  Continuity Error (%) .....        -0.245
  
  
  **************************        Volume        Volume
  Flow Routing Continuity        hectare-m      10^6 ltr
  **************************     ---------     ---------
  Dry Weather Inflow .......         0.758         7.576
  Wet Weather Inflow .......         1.602        16.025
  Groundwater Inflow .......         0.000         0.000
  RDII Inflow ..............         0.000         0.000
  External Inflow ..........         0.000         0.000
  External Outflow .........         1.111        11.108
  Flooding Loss ............         0.327         3.272
  Evaporation Loss .........         0.000         0.000
  Exfiltration Loss ........         0.000         0.000
  Initial Stored Volume ....         0.000         0.000
  Final Stored Volume ......         0.720         7.202
  Continuity Error (%) .....         8.553
  
  
  *************************
  Highest Continuity Errors
  *************************
  Node T5 (20.28%)
  Node T3 (13.57%)
  Node T2 (12.51%)
  Node T6 (11.02%)
  Node T4 (7.36%)
  
  
  ***************************
  Time-Step Critical Elements
  ***************************
  None
  
  
  ********************************
  Highest Flow Instability Indexes
  ********************************
  All links are stable.
  
  
  *************************
  Routing Time Step Summary
  *************************
  Minimum Time Step           :     4.50 sec
  Average Time Step           :     5.00 sec
  Maximum Time Step           :     5.00 sec
  Percent in Steady State     :     0.00
  Average Iterations per Step :     2.00
  Percent Not Converging      :     0.00
  
  
  ***************************
  Subcatchment Runoff Summary
  ***************************
  
  ------------------------------------------------------------------------------------------------------------------------------
                            Total      Total      Total      Total     Imperv       Perv      Total       Total     Peak  Runoff
                           Precip      Runon       Evap      Infil     Runoff     Runoff     Runoff      Runoff   Runoff   Coeff
  Subcatchment                 mm         mm         mm         mm         mm         mm         mm    10^6 ltr      CMS
  ------------------------------------------------------------------------------------------------------------------------------
  SC01                       9.81       0.00       0.00       0.00       8.86       0.00       8.86        2.92     0.36   0.903
  SC02                      10.40       0.00       0.00       0.00       9.37       0.00       9.37        2.13     0.24   0.901
  SC03                      10.10       0.00       0.00       0.00       9.38       0.00       9.38        1.69     0.21   0.929
  SC04                      10.40       0.00       0.00       0.00       8.60       0.00       8.60        0.59     0.06   0.827
  SC05                       9.81       0.00       0.00       0.00       8.79       0.00       8.79        1.37     0.17   0.896
  SC06                      10.85       0.00       0.00       0.00       8.70       0.00       8.70        2.83     0.29   0.802
  SC07                      10.40       0.00       0.00       0.00       8.61       0.00       8.61        0.41     0.04   0.828
  SC08                      10.10       0.00       0.00       0.00       8.81       0.00       8.81        2.47     0.27   0.872
  SC09                      10.85       0.00       0.00       0.00       9.29       0.00       9.29        0.64     0.07   0.857
  SC010                      9.81       0.00       0.00       0.00       8.58       0.00       8.58        1.01     0.12   0.875
  
  
  ******************
  Node Depth Summary
  ******************
  
  ---------------------------------------------------------------------------------
                                 Average  Maximum  Maximum  Time of Max    Reported
                                   Depth    Depth      HGL   Occurrence   Max Depth
  Node                 Type       Meters   Meters   Meters  days hr:min      Meters
  ---------------------------------------------------------------------------------
  J1                   JUNCTION     0.05     0.13    34.13     0  23:11        0.13
  J3                   JUNCTION     0.09     0.16    18.16     0  23:40        0.16
  CSO7                 JUNCTION     0.07     0.16    34.16     0  23:16        0.16
  J5                   JUNCTION     0.05     0.11    32.11     0  23:22        0.11
  CSO9                 JUNCTION     0.08     0.23    40.23     0  23:16        0.23
  J8                   JUNCTION     0.08     0.19    36.19     0  23:27        0.19
  CSO8                 JUNCTION     0.08     0.34    32.34     0  23:26        0.33
  J10                  JUNCTION     0.07     0.20    29.20     0  23:17        0.20
  J13                  JUNCTION     0.05     0.13    29.13     0  23:12        0.13
  J15                  JUNCTION     0.13     0.29    15.29     0  23:18        0.29
  J16                  JUNCTION     0.05     0.14    30.14     0  23:11        0.14
  CSO10                JUNCTION     0.08     0.29    30.29     0  23:11        0.28
  J12                  JUNCTION     0.10     0.59    26.59     0  23:40        0.59
  J4                   JUNCTION     0.09     0.19    33.19     0  23:23        0.19
  J6                   JUNCTION     0.05     0.09    25.09     0  23:40        0.09
  J2                   JUNCTION     0.05     0.08    25.08     0  23:40        0.08
  J19                  JUNCTION     0.11     0.17     8.17     0  18:34        0.17
  J9                   JUNCTION     0.08     0.15    29.15     0  23:40        0.15
  J14                  JUNCTION     0.10     0.18    20.18     0  23:40        0.18
  J17                  JUNCTION     0.06     0.12    20.12     0  23:40        0.12
  J7                   JUNCTION     0.06     0.16    39.16     0  23:23        0.16
  J11                  JUNCTION     0.06     0.22    31.22     0  23:28        0.22
  J18                  JUNCTION     0.04     0.12    29.12     0  23:13        0.12
  Out_to_WWTP          OUTFALL      0.11     0.17     6.17     0  18:32        0.17
  T5                   STORAGE      1.25     5.00    32.00     0  23:28        5.00
  T4                   STORAGE      0.38     1.70    28.70     0  23:40        1.70
  T6                   STORAGE      0.79     3.59    34.59     0  23:40        3.59
  T3                   STORAGE      1.05     4.56    26.56     0  23:40        4.56
  T2                   STORAGE      0.35     1.81    22.81     0  23:40        1.81
  T1                   STORAGE      1.79     5.00    15.00     0  18:33        5.00
  
  
  *******************
  Node Inflow Summary
  *******************
  
  -------------------------------------------------------------------------------------------------
                                  Maximum  Maximum                  Lateral       Total        Flow
                                  Lateral    Total  Time of Max      Inflow      Inflow     Balance
                                   Inflow   Inflow   Occurrence      Volume      Volume       Error
  Node                 Type           CMS      CMS  days hr:min    10^6 ltr    10^6 ltr     Percent
  -------------------------------------------------------------------------------------------------
  J1                   JUNCTION     0.169    0.169     0  23:11        2.46        2.46       0.358
  J3                   JUNCTION     0.000    0.266     0  23:40           0        8.59       0.554
  CSO7                 JUNCTION     0.043    0.043     0  23:16       0.973       0.973       0.149
  J5                   JUNCTION     0.061    0.099     0  23:16        0.84         1.8       0.540
  CSO9                 JUNCTION     0.069    0.069     0  23:16        1.02        1.02       0.254
  J8                   JUNCTION     0.290    0.351     0  23:26        4.65        5.66       0.708
  CSO8                 JUNCTION     0.272    0.272     0  23:26        2.91        2.91       0.163
  J10                  JUNCTION     0.211    0.425     0  23:16        2.44        5.29       0.930
  J13                  JUNCTION     0.247    0.247     0  23:11        3.04        3.04       0.327
  J15                  JUNCTION     0.000    0.760     0  23:12           0        16.1       1.170
  J16                  JUNCTION     0.361    0.361     0  23:11        3.99        3.99       0.416
  CSO10                JUNCTION     0.120    0.120     0  23:11        1.28        1.28       0.296
  J12                  JUNCTION     0.000    0.542     0  23:28           0        9.79       4.476
  J4                   JUNCTION     0.000    0.042     0  23:16           0       0.971       1.098
  J6                   JUNCTION     0.000    0.046     0  23:40           0        1.49       0.396
  J2                   JUNCTION     0.000    0.039     0  23:28           0         1.4       0.424
  J19                  JUNCTION     0.000    0.271     0  18:33           0        11.1       0.114
  J9                   JUNCTION     0.000    0.148     0  23:40           0        4.57       0.610
  J14                  JUNCTION     0.000    0.181     0  23:40           0        5.72       0.170
  J17                  JUNCTION     0.000    0.084     0  23:40           0        2.28       0.502
  J7                   JUNCTION     0.000    0.066     0  23:17           0        1.02       1.489
  J11                  JUNCTION     0.000    0.269     0  23:26           0         2.9       1.565
  J18                  JUNCTION     0.000    0.115     0  23:11           0        1.27       1.076
  Out_to_WWTP          OUTFALL      0.000    0.271     0  18:34           0        11.1       0.000
  T5                   STORAGE      0.000    0.158     0  23:12           0        2.45      25.439
  T4                   STORAGE      0.000    0.096     0  23:22           0        1.79       7.945
  T6                   STORAGE      0.000    0.338     0  23:27           0        5.62      12.380
  T3                   STORAGE      0.000    0.516     0  23:31           0        9.37      15.699
  T2                   STORAGE      0.000    0.229     0  23:12           0        3.03      14.293
  T1                   STORAGE      0.000    0.735     0  23:18           0        15.9       5.534
  
  
  **********************
  Node Surcharge Summary
  **********************
  
  No nodes were surcharged.
  
  
  *********************
  Node Flooding Summary
  *********************
  
  Flooding refers to all water that overflows a node, whether it ponds or not.
  --------------------------------------------------------------------------
                                                             Total   Maximum
                                 Maximum   Time of Max       Flood    Ponded
                        Hours       Rate    Occurrence      Volume     Depth
  Node                 Flooded       CMS   days hr:min    10^6 ltr    Meters
  --------------------------------------------------------------------------
  T5                      0.19     0.098      0  23:32       0.059     0.000
  T1                      5.11     0.465      0  23:18       3.214     0.000
  
  
  **********************
  Storage Volume Summary
  **********************
  
  --------------------------------------------------------------------------------------------------
                         Average     Avg  Evap Exfil       Maximum     Max    Time of Max    Maximum
                          Volume    Pcnt  Pcnt  Pcnt        Volume    Pcnt     Occurrence    Outflow
  Storage Unit           1000 m3    Full  Loss  Loss       1000 m3    Full    days hr:min        CMS
  --------------------------------------------------------------------------------------------------
  T5                       0.125      25     0     0         0.500     100       0  23:28      0.039
  T4                       0.038       8     0     0         0.170      34       0  23:40      0.046
  T6                       0.095      16     0     0         0.431      72       0  23:40      0.148
  T3                       0.545      21     0     0         2.373      91       0  23:40      0.181
  T2                       0.070       7     0     0         0.363      36       0  23:40      0.084
  T1                       0.250      36     0     0         0.700     100       0  18:33      0.271
  
  
  ***********************
  Outfall Loading Summary
  ***********************
  
  -----------------------------------------------------------
                         Flow       Avg       Max       Total
                         Freq      Flow      Flow      Volume
  Outfall Node           Pcnt       CMS       CMS    10^6 ltr
  -----------------------------------------------------------
  Out_to_WWTP           99.43     0.131     0.271      11.108
  -----------------------------------------------------------
  System                99.43     0.131     0.271      11.108
  
  
  ********************
  Link Flow Summary
  ********************
  
  -----------------------------------------------------------------------------
                                 Maximum  Time of Max   Maximum    Max/    Max/
                                  |Flow|   Occurrence   |Veloc|    Full    Full
  Link                 Type          CMS  days hr:min     m/sec    Flow   Depth
  -----------------------------------------------------------------------------
  C1                   CONDUIT     0.039     0  23:40      0.75    0.01    0.12
  C6                   CONDUIT     0.040     0  23:23      1.17    0.63    0.49
  C2                   CONDUIT     0.046     0  23:40      1.07    0.05    0.21
  C9                   CONDUIT     0.063     0  23:23      1.05    0.22    0.35
  C16                  CONDUIT     0.247     0  23:28      1.45    0.02    0.10
  C3                   CONDUIT     0.181     0  23:40      2.02    0.07    0.17
  C19                  CONDUIT     0.084     0  23:40      0.89    0.03    0.20
  C11                  CONDUIT     0.265     0  23:40      1.72    0.01    0.11
  C20                  CONDUIT     0.336     0  23:12      1.86    0.01    0.11
  C22                  CONDUIT     0.109     0  23:13      1.07    0.05    0.26
  C12                  CONDUIT     0.146     0  23:40      1.32    0.01    0.18
  C17                  CONDUIT     0.407     0  23:17      2.22    0.02    0.19
  C10                  CONDUIT     0.338     0  23:27      0.94    0.03    0.56
  C13                  CONDUIT     0.516     0  23:31      0.85    0.03    0.65
  C18                  CONDUIT     0.229     0  23:12      1.01    0.01    0.48
  C23                  CONDUIT     0.735     0  23:18      0.86    0.08    0.60
  C4                   CONDUIT     0.158     0  23:12      1.13    0.04    0.57
  C7                   CONDUIT     0.096     0  23:22      0.90    0.02    0.55
  C14                  CONDUIT     0.271     0  18:34      2.08    0.02    0.09
  C5                   CONDUIT     0.042     0  23:16      1.15    0.71    0.67
  C8                   CONDUIT     0.066     0  23:17      1.32    0.83    0.61
  C15                  CONDUIT     0.269     0  23:26      2.64    0.85    0.61
  C21                  CONDUIT     0.115     0  23:11      1.68    0.66    0.46
  V4                   ORIFICE     0.046     0  23:40                      1.00
  V5                   ORIFICE     0.039     0  23:28                      1.00
  V1                   ORIFICE     0.271     0  18:33                      1.00
  V6                   ORIFICE     0.148     0  23:40                      1.00
  V3                   ORIFICE     0.181     0  23:40                      1.00
  V2                   ORIFICE     0.084     0  23:40                      1.00
  
  
  ***************************
  Flow Classification Summary
  ***************************
  
  -------------------------------------------------------------------------------------
                      Adjusted    ---------- Fraction of Time in Flow Class ---------- 
                       /Actual         Up    Down  Sub   Sup   Up    Down  Norm  Inlet 
  Conduit               Length    Dry  Dry   Dry   Crit  Crit  Crit  Crit  Ltd   Ctrl  
  -------------------------------------------------------------------------------------
  C1                      1.00   0.00  0.00  0.00  0.93  0.07  0.00  0.00  0.97  0.00
  C6                      1.00   0.00  0.00  0.00  0.01  0.99  0.00  0.00  0.00  0.00
  C2                      1.00   0.00  0.00  0.00  0.19  0.81  0.00  0.00  0.97  0.00
  C9                      1.00   0.00  0.00  0.00  1.00  0.00  0.00  0.00  1.00  0.00
  C16                     1.00   0.00  0.25  0.00  0.45  0.30  0.00  0.00  0.39  0.00
  C3                      1.00   0.00  0.00  0.00  0.04  0.96  0.00  0.00  0.07  0.00
  C19                     1.00   0.00  0.00  0.00  1.00  0.00  0.00  0.00  1.00  0.00
  C11                     1.00   0.00  0.00  0.00  0.03  0.97  0.00  0.00  1.00  0.00
  C20                     1.00   0.00  0.00  0.00  0.80  0.20  0.00  0.00  0.99  0.00
  C22                     1.00   0.00  0.00  0.00  1.00  0.00  0.00  0.00  1.00  0.00
  C12                     1.00   0.00  0.00  0.00  0.24  0.76  0.00  0.00  0.87  0.00
  C17                     1.00   0.00  0.00  0.00  0.41  0.59  0.00  0.00  0.99  0.00
  C10                     1.00   0.00  0.00  0.00  0.77  0.23  0.00  0.00  0.98  0.00
  C13                     1.00   0.00  0.00  0.00  0.76  0.24  0.00  0.00  0.90  0.00
  C18                     1.00   0.00  0.00  0.00  0.59  0.41  0.00  0.00  0.98  0.00
  C23                     1.00   0.00  0.00  0.00  0.80  0.20  0.00  0.00  0.96  0.00
  C4                      1.00   0.00  0.00  0.00  0.82  0.18  0.00  0.00  0.98  0.00
  C7                      1.00   0.00  0.00  0.00  0.74  0.26  0.00  0.00  0.83  0.00
  C14                     1.00   0.00  0.00  0.00  0.00  1.00  0.00  0.00  0.32  0.00
  C5                      1.00   0.00  0.00  0.00  0.89  0.11  0.00  0.00  0.99  0.00
  C8                      1.00   0.00  0.00  0.00  0.14  0.86  0.00  0.00  0.00  0.00
  C15                     1.00   0.25  0.00  0.00  0.00  0.75  0.00  0.00  0.00  0.00
  C21                     1.00   0.00  0.00  0.00  0.00  1.00  0.00  0.00  0.00  0.00
  
  
  *************************
  Conduit Surcharge Summary
  *************************
  
  ----------------------------------------------------------------------------
                                                           Hours        Hours 
                         --------- Hours Full --------   Above Full   Capacity
  Conduit                Both Ends  Upstream  Dnstream   Normal Flow   Limited
  ----------------------------------------------------------------------------
  C10                         0.01      0.01      6.24      0.01         0.01
  C13                         0.01      0.01      5.58      0.01         0.01
  C23                         0.01      0.01      7.43      0.01         0.01
  C4                          0.01      0.01     10.00      0.01         0.01
  C7                          0.01      0.01      3.58      0.01         0.01
  

  Analysis begun on:  Tue Sep 21 02:44:06 2021
  Analysis ended on:  Tue Sep 21 02:44:07 2021
  Total elapsed time: 00:00:01