
  EPA STORM WATER MANAGEMENT MODEL - VERSION 5.1 (Build 5.3.0.dev0)
  --------------------------------------------------------------

  
  *********************************************************
  NOTE: The summary statistics displayed in this report are
  based on results found at every computational time step,  
  not just on results from each reporting time step.
  *********************************************************
  
  ****************
  Analysis Options
  ****************
  Flow Units ............... CMS
  Process Models:
    Rainfall/Runoff ........ YES
    RDII ................... NO
    Snowmelt ............... NO
    Groundwater ............ NO
    Flow Routing ........... YES
    Ponding Allowed ........ YES
    Water Quality .......... NO
  Infiltration Method ...... HORTON
  Flow Routing Method ...... DYNWAVE
  Surcharge Method ......... EXTRAN
  Starting Date ............ 08/28/2015 08:00:00
  Ending Date .............. 08/28/2015 15:50:00
  Antecedent Dry Days ...... 0.0
  Report Time Step ......... 00:01:00
  Wet Time Step ............ 00:01:00
  Dry Time Step ............ 00:01:00
  Routing Time Step ........ 5.00 sec
  Variable Time Step ....... YES
  Maximum Trials ........... 8
  Number of Threads ........ 1
  Head Tolerance ........... 0.001500 m
  
  
  **************************        Volume         Depth
  Runoff Quantity Continuity     hectare-m            mm
  **************************     ---------       -------
  Total Precipitation ......         1.862        10.333
  Evaporation Loss .........         0.000         0.000
  Infiltration Loss ........         0.000         0.000
  Surface Runoff ...........         1.839        10.204
  Final Storage ............         0.023         0.129
  Continuity Error (%) .....        -0.006
  
  
  **************************        Volume        Volume
  Flow Routing Continuity        hectare-m      10^6 ltr
  **************************     ---------     ---------
  Dry Weather Inflow .......         0.396         3.956
  Wet Weather Inflow .......         1.839        18.388
  Groundwater Inflow .......         0.000         0.000
  RDII Inflow ..............         0.000         0.000
  External Inflow ..........         0.000         0.000
  External Outflow .........         0.611         6.115
  Flooding Loss ............         0.810         8.095
  Evaporation Loss .........         0.000         0.000
  Exfiltration Loss ........         0.000         0.000
  Initial Stored Volume ....         0.000         0.000
  Final Stored Volume ......         0.661         6.612
  Continuity Error (%) .....         6.813
  
  
  *************************
  Highest Continuity Errors
  *************************
  Node T5 (18.38%)
  Node T3 (16.85%)
  Node T2 (8.65%)
  Node J12 (7.28%)
  Node T4 (6.17%)
  
  
  ***************************
  Time-Step Critical Elements
  ***************************
  None
  
  
  ********************************
  Highest Flow Instability Indexes
  ********************************
  Link C13 (1)
  
  
  *************************
  Routing Time Step Summary
  *************************
  Minimum Time Step           :     1.45 sec
  Average Time Step           :     5.00 sec
  Maximum Time Step           :     5.00 sec
  Percent in Steady State     :     0.00
  Average Iterations per Step :     2.19
  Percent Not Converging      :     0.57
  
  
  ***************************
  Subcatchment Runoff Summary
  ***************************
  
  ------------------------------------------------------------------------------------------------------------------------------
                            Total      Total      Total      Total     Imperv       Perv      Total       Total     Peak  Runoff
                           Precip      Runon       Evap      Infil     Runoff     Runoff     Runoff      Runoff   Runoff   Coeff
  Subcatchment                 mm         mm         mm         mm         mm         mm         mm    10^6 ltr      CMS
  ------------------------------------------------------------------------------------------------------------------------------
  SC01                      10.33       0.00       0.00       0.00      10.25       0.00      10.25        3.38     0.83   0.992
  SC02                      10.33       0.00       0.00       0.00      10.24       0.00      10.24        2.33     0.56   0.991
  SC03                      10.33       0.00       0.00       0.00      10.26       0.00      10.26        1.85     0.48   0.993
  SC04                      10.33       0.00       0.00       0.00      10.14       0.00      10.14        0.70     0.14   0.981
  SC05                      10.33       0.00       0.00       0.00      10.24       0.00      10.24        1.60     0.38   0.991
  SC06                      10.33       0.00       0.00       0.00      10.09       0.00      10.09        3.28     0.64   0.976
  SC07                      10.33       0.00       0.00       0.00      10.14       0.00      10.14        0.48     0.10   0.982
  SC08                      10.33       0.00       0.00       0.00      10.22       0.00      10.22        2.86     0.66   0.989
  SC09                      10.33       0.00       0.00       0.00      10.19       0.00      10.19        0.70     0.15   0.986
  SC010                     10.33       0.00       0.00       0.00      10.22       0.00      10.22        1.20     0.28   0.989
  
  
  ******************
  Node Depth Summary
  ******************
  
  ---------------------------------------------------------------------------------
                                 Average  Maximum  Maximum  Time of Max    Reported
                                   Depth    Depth      HGL   Occurrence   Max Depth
  Node                 Type       Meters   Meters   Meters  days hr:min      Meters
  ---------------------------------------------------------------------------------
  J1                   JUNCTION     0.08     0.21    34.21     0  02:14        0.21
  J3                   JUNCTION     0.14     0.17    18.17     0  03:46        0.17
  CSO7                 JUNCTION     0.24     1.20    35.20     0  02:02        1.20
  J5                   JUNCTION     0.07     0.16    32.16     0  02:18        0.16
  CSO9                 JUNCTION     0.30     2.00    42.00     0  02:05        2.00
  J8                   JUNCTION     0.12     0.29    36.29     0  02:20        0.29
  CSO8                 JUNCTION     0.32     2.00    34.00     0  02:03        2.00
  J10                  JUNCTION     0.11     0.30    29.30     0  02:13        0.30
  J13                  JUNCTION     0.07     0.20    29.20     0  02:14        0.20
  J15                  JUNCTION     0.22     0.39    15.39     0  02:18        0.39
  J16                  JUNCTION     0.08     0.22    30.22     0  02:14        0.22
  CSO10                JUNCTION     0.19     1.00    31.00     0  02:03        1.00
  J12                  JUNCTION     0.64     1.00    27.00     0  04:49        1.00
  J4                   JUNCTION     0.20     1.33    34.33     0  02:02        0.77
  J6                   JUNCTION     0.09     0.12    25.12     0  03:28        0.12
  J2                   JUNCTION     0.07     0.08    25.08     0  03:20        0.08
  J19                  JUNCTION     0.15     0.17     8.17     0  02:13        0.17
  J9                   JUNCTION     0.13     0.16    29.16     0  03:39        0.16
  J14                  JUNCTION     0.15     0.19    20.19     0  06:02        0.19
  J17                  JUNCTION     0.11     0.14    20.14     0  03:15        0.14
  J7                   JUNCTION     0.09     0.23    39.23     0  02:35        0.23
  J11                  JUNCTION     0.11     0.30    31.30     0  02:36        0.30
  J18                  JUNCTION     0.06     0.16    29.16     0  02:36        0.16
  Out_to_WWTP          OUTFALL      0.15     0.17     6.17     0  02:12        0.17
  T5                   STORAGE      3.54     5.00    32.00     0  02:30        5.00
  T4                   STORAGE      2.10     4.18    31.18     0  03:27        4.18
  T6                   STORAGE      2.79     5.00    36.00     0  02:27        5.00
  T3                   STORAGE      3.49     5.00    27.00     0  04:17        5.00
  T2                   STORAGE      2.14     4.30    25.30     0  03:13        4.30
  T1                   STORAGE      3.84     5.00    15.00     0  02:11        5.00
  
  
  *******************
  Node Inflow Summary
  *******************
  
  -------------------------------------------------------------------------------------------------
                                  Maximum  Maximum                  Lateral       Total        Flow
                                  Lateral    Total  Time of Max      Inflow      Inflow     Balance
                                   Inflow   Inflow   Occurrence      Volume      Volume       Error
  Node                 Type           CMS      CMS  days hr:min    10^6 ltr    10^6 ltr     Percent
  -------------------------------------------------------------------------------------------------
  J1                   JUNCTION     0.405    0.405     0  02:14        2.16        2.16       0.015
  J3                   JUNCTION     0.000    0.300     0  03:45           0        6.17       0.786
  CSO7                 JUNCTION     0.110    0.110     0  02:18       0.772       0.772       0.059
  J5                   JUNCTION     0.149    0.220     0  02:18       0.827        1.52       0.070
  CSO9                 JUNCTION     0.162    0.162     0  02:16       0.899       0.899       0.044
  J8                   JUNCTION     0.673    0.801     0  02:20        4.23        5.08       0.070
  CSO8                 JUNCTION     0.667    0.667     0  02:15        3.15        3.15       0.013
  J10                  JUNCTION     0.489    0.976     0  02:12        2.23        5.18      -0.015
  J13                  JUNCTION     0.579    0.579     0  02:14         2.8         2.8      -0.213
  J15                  JUNCTION     0.000    1.322     0  02:15           0        13.6       0.849
  J16                  JUNCTION     0.846    0.846     0  02:14        3.94        3.94      -0.030
  CSO10                JUNCTION     0.283    0.283     0  02:15        1.34        1.34       0.019
  J12                  JUNCTION     0.000    1.104     0  02:14           0        8.54       7.855
  J4                   JUNCTION     0.000    0.075     0  02:02           0       0.699       0.471
  J6                   JUNCTION     0.000    0.073     0  03:27           0        1.31       0.379
  J2                   JUNCTION     0.000    0.039     0  02:30           0       0.861       0.613
  J19                  JUNCTION     0.000    0.271     0  02:11           0        6.13       0.206
  J9                   JUNCTION     0.000    0.175     0  02:27           0        3.34       0.537
  J14                  JUNCTION     0.000    0.190     0  04:17           0        4.02       0.250
  J17                  JUNCTION     0.000    0.130     0  03:13           0        2.32       0.453
  J7                   JUNCTION     0.000    0.127     0  02:35           0       0.861       0.364
  J11                  JUNCTION     0.000    0.486     0  02:36           0        2.95       0.213
  J18                  JUNCTION     0.000    0.202     0  02:36           0        1.25       0.033
  Out_to_WWTP          OUTFALL      0.000    0.271     0  02:13           0        6.11       0.000
  T5                   STORAGE      0.000    0.405     0  02:14           0        2.16      22.525
  T4                   STORAGE      0.000    0.220     0  02:18           0        1.52       6.580
  T6                   STORAGE      0.000    0.800     0  02:20           0        5.08       5.339
  T3                   STORAGE      0.000    1.097     0  02:17           0        7.92      20.260
  T2                   STORAGE      0.000    0.579     0  02:14           0         2.8       9.474
  T1                   STORAGE      0.000    1.309     0  02:18           0        13.5       6.533
  
  
  **********************
  Node Surcharge Summary
  **********************
  
  Surcharging occurs when water rises above the top of the highest conduit.
  ---------------------------------------------------------------------
                                               Max. Height   Min. Depth
                                   Hours       Above Crown    Below Rim
  Node                 Type      Surcharged         Meters       Meters
  ---------------------------------------------------------------------
  CSO7                 JUNCTION        1.14          0.945        0.000
  CSO9                 JUNCTION        1.17          1.682        0.000
  CSO8                 JUNCTION        1.15          1.547        0.000
  CSO10                JUNCTION        0.80          0.560        0.000
  J4                   JUNCTION        1.12          1.033        0.667
  
  
  *********************
  Node Flooding Summary
  *********************
  
  Flooding refers to all water that overflows a node, whether it ponds or not.
  --------------------------------------------------------------------------
                                                             Total   Maximum
                                 Maximum   Time of Max       Flood    Ponded
                        Hours       Rate    Occurrence      Volume     Depth
  Node                 Flooded       CMS   days hr:min    10^6 ltr    Meters
  --------------------------------------------------------------------------
  CSO7                    0.94     0.038      0  02:18       0.073     0.000
  CSO9                    0.50     0.035      0  02:16       0.038     0.000
  CSO8                    0.54     0.181      0  02:15       0.204     0.000
  CSO10                   0.56     0.080      0  02:15       0.092     0.000
  T5                      1.35     0.279      0  02:30       0.502     0.000
  T6                      1.25     0.606      0  02:27       1.314     0.000
  T3                      0.19     0.159      0  04:26       0.032     0.000
  T1                      5.64     1.038      0  02:18       5.840     0.000
  
  
  **********************
  Storage Volume Summary
  **********************
  
  --------------------------------------------------------------------------------------------------
                         Average     Avg  Evap Exfil       Maximum     Max    Time of Max    Maximum
                          Volume    Pcnt  Pcnt  Pcnt        Volume    Pcnt     Occurrence    Outflow
  Storage Unit           1000 m3    Full  Loss  Loss       1000 m3    Full    days hr:min        CMS
  --------------------------------------------------------------------------------------------------
  T5                       0.354      71     0     0         0.500     100       0  02:30      0.039
  T4                       0.210      42     0     0         0.418      84       0  03:27      0.073
  T6                       0.335      56     0     0         0.600     100       0  02:27      0.175
  T3                       1.817      70     0     0         2.600     100       0  04:17      0.272
  T2                       0.427      43     0     0         0.859      86       0  03:13      0.130
  T1                       0.538      77     0     0         0.700     100       0  02:11      0.271
  
  
  ***********************
  Outfall Loading Summary
  ***********************
  
  -----------------------------------------------------------
                         Flow       Avg       Max       Total
                         Freq      Flow      Flow      Volume
  Outfall Node           Pcnt       CMS       CMS    10^6 ltr
  -----------------------------------------------------------
  Out_to_WWTP           99.01     0.219     0.271       6.115
  -----------------------------------------------------------
  System                99.01     0.219     0.271       6.115
  
  
  ********************
  Link Flow Summary
  ********************
  
  -----------------------------------------------------------------------------
                                 Maximum  Time of Max   Maximum    Max/    Max/
                                  |Flow|   Occurrence   |Veloc|    Full    Full
  Link                 Type          CMS  days hr:min     m/sec    Flow   Depth
  -----------------------------------------------------------------------------
  C1                   CONDUIT     0.039     0  03:20      0.91    0.01    0.12
  C6                   CONDUIT     0.071     0  02:18      1.29    1.14    0.76
  C2                   CONDUIT     0.073     0  03:28      1.41    0.08    0.24
  C9                   CONDUIT     0.127     0  02:35      1.29    0.43    0.52
  C16                  CONDUIT     0.489     0  02:10      1.78    0.05    0.15
  C3                   CONDUIT     0.190     0  04:27      2.06    0.07    0.18
  C19                  CONDUIT     0.130     0  03:15      1.19    0.04    0.25
  C11                  CONDUIT     0.300     0  03:46      1.85    0.01    0.13
  C20                  CONDUIT     0.846     0  02:14      2.86    0.03    0.15
  C22                  CONDUIT     0.202     0  02:36      1.50    0.09    0.34
  C12                  CONDUIT     0.175     0  03:39      0.85    0.01    0.29
  C17                  CONDUIT     0.973     0  02:13      3.02    0.05    0.27
  C10                  CONDUIT     0.800     0  02:20      1.66    0.08    0.60
  C13                  CONDUIT     1.097     0  02:17      1.53    0.06    0.75
  C18                  CONDUIT     0.579     0  02:14      1.72    0.02    0.55
  C23                  CONDUIT     1.309     0  02:18      1.26    0.14    0.63
  C4                   CONDUIT     0.405     0  02:14      1.98    0.10    0.61
  C7                   CONDUIT     0.220     0  02:18      1.43    0.05    0.58
  C14                  CONDUIT     0.271     0  02:13      2.08    0.02    0.09
  C5                   CONDUIT     0.075     0  02:02      1.46    1.28    1.00
  C8                   CONDUIT     0.127     0  02:35      1.76    1.60    0.86
  C15                  CONDUIT     0.486     0  02:36      3.43    1.55    0.83
  C21                  CONDUIT     0.202     0  02:36      1.83    1.16    0.69
  V4                   ORIFICE     0.073     0  03:27                      1.00
  V5                   ORIFICE     0.039     0  02:30                      1.00
  V1                   ORIFICE     0.271     0  02:11                      1.00
  V6                   ORIFICE     0.175     0  02:27                      1.00
  V3                   ORIFICE     0.190     0  04:17                      1.00
  V2                   ORIFICE     0.130     0  03:13                      1.00
  
  
  ***************************
  Flow Classification Summary
  ***************************
  
  -------------------------------------------------------------------------------------
                      Adjusted    ---------- Fraction of Time in Flow Class ---------- 
                       /Actual         Up    Down  Sub   Sup   Up    Down  Norm  Inlet 
  Conduit               Length    Dry  Dry   Dry   Crit  Crit  Crit  Crit  Ltd   Ctrl  
  -------------------------------------------------------------------------------------
  C1                      1.00   0.00  0.00  0.00  0.92  0.08  0.00  0.00  0.95  0.00
  C6                      1.00   0.00  0.00  0.00  0.17  0.83  0.00  0.00  0.00  0.00
  C2                      1.00   0.00  0.00  0.00  0.01  0.99  0.00  0.00  0.94  0.00
  C9                      1.00   0.00  0.00  0.00  1.00  0.00  0.00  0.00  1.00  0.00
  C16                     1.00   0.00  0.00  0.00  0.56  0.43  0.00  0.00  0.47  0.00
  C3                      1.00   0.00  0.00  0.00  0.05  0.94  0.00  0.00  0.07  0.00
  C19                     1.00   0.00  0.00  0.00  0.72  0.28  0.00  0.00  1.00  0.00
  C11                     1.00   0.00  0.00  0.00  0.29  0.71  0.00  0.00  1.00  0.00
  C20                     1.00   0.00  0.00  0.00  0.64  0.36  0.00  0.00  0.98  0.00
  C22                     1.00   0.00  0.00  0.00  0.86  0.14  0.00  0.00  1.00  0.00
  C12                     1.00   0.00  0.00  0.00  0.93  0.06  0.00  0.00  1.00  0.00
  C17                     1.00   0.00  0.00  0.00  0.63  0.37  0.00  0.00  0.97  0.00
  C10                     1.00   0.00  0.00  0.00  0.94  0.06  0.00  0.00  0.97  0.00
  C13                     1.00   0.00  0.00  0.00  0.84  0.16  0.00  0.00  0.27  0.00
  C18                     1.00   0.00  0.00  0.00  0.82  0.18  0.00  0.00  0.97  0.00
  C23                     1.00   0.00  0.00  0.00  0.90  0.10  0.00  0.00  0.94  0.00
  C4                      1.00   0.00  0.00  0.00  0.96  0.04  0.00  0.00  0.98  0.00
  C7                      1.00   0.00  0.00  0.00  0.91  0.09  0.00  0.00  0.96  0.00
  C14                     1.00   0.00  0.00  0.00  0.00  0.99  0.00  0.00  0.00  0.00
  C5                      1.00   0.00  0.00  0.00  0.90  0.10  0.00  0.00  0.83  0.00
  C8                      1.00   0.00  0.00  0.00  0.18  0.82  0.00  0.00  0.00  0.00
  C15                     1.00   0.00  0.00  0.00  0.00  1.00  0.00  0.00  0.00  0.00
  C21                     1.00   0.00  0.00  0.00  0.01  0.99  0.00  0.00  0.00  0.00
  
  
  *************************
  Conduit Surcharge Summary
  *************************
  
  ----------------------------------------------------------------------------
                                                           Hours        Hours 
                         --------- Hours Full --------   Above Full   Capacity
  Conduit                Both Ends  Upstream  Dnstream   Normal Flow   Limited
  ----------------------------------------------------------------------------
  C6                          0.01      1.12      0.01      1.02         0.01
  C10                         0.01      0.01      5.70      0.01         0.01
  C13                         0.01      0.01      5.61      0.01         0.01
  C18                         0.01      0.01      4.17      0.01         0.01
  C23                         0.01      0.01      6.10      0.01         0.01
  C4                          0.01      0.01      6.13      0.01         0.01
  C7                          0.01      0.01      5.78      0.01         0.01
  C5                          1.13      1.14      1.23      1.18         1.10
  C8                          0.01      1.17      0.01      1.18         0.01
  C15                         0.01      1.15      0.01      1.21         0.01
  C21                         0.01      0.80      0.01      0.76         0.01
  

  Analysis begun on:  Fri Sep  3 17:57:46 2021
  Analysis ended on:  Fri Sep  3 17:57:46 2021
  Total elapsed time: < 1 sec