
  EPA STORM WATER MANAGEMENT MODEL - VERSION 5.1 (Build 5.3.0.dev0)
  --------------------------------------------------------------

  
  *********************************************************
  NOTE: The summary statistics displayed in this report are
  based on results found at every computational time step,  
  not just on results from each reporting time step.
  *********************************************************
  
  ****************
  Analysis Options
  ****************
  Flow Units ............... CMS
  Process Models:
    Rainfall/Runoff ........ YES
    RDII ................... NO
    Snowmelt ............... NO
    Groundwater ............ NO
    Flow Routing ........... YES
    Ponding Allowed ........ YES
    Water Quality .......... NO
  Infiltration Method ...... HORTON
  Flow Routing Method ...... DYNWAVE
  Surcharge Method ......... EXTRAN
  Starting Date ............ 08/28/2015 08:00:00
  Ending Date .............. 08/28/2015 15:50:00
  Antecedent Dry Days ...... 0.0
  Report Time Step ......... 00:01:00
  Wet Time Step ............ 00:01:00
  Dry Time Step ............ 00:01:00
  Routing Time Step ........ 5.00 sec
  Variable Time Step ....... YES
  Maximum Trials ........... 8
  Number of Threads ........ 1
  Head Tolerance ........... 0.001500 m
  
  
  **************************        Volume         Depth
  Runoff Quantity Continuity     hectare-m            mm
  **************************     ---------       -------
  Total Precipitation ......         2.031        11.271
  Evaporation Loss .........         0.000         0.000
  Infiltration Loss ........         0.000         0.000
  Surface Runoff ...........         2.008        11.143
  Final Storage ............         0.023         0.129
  Continuity Error (%) .....        -0.006
  
  
  **************************        Volume        Volume
  Flow Routing Continuity        hectare-m      10^6 ltr
  **************************     ---------     ---------
  Dry Weather Inflow .......         0.396         3.955
  Wet Weather Inflow .......         2.008        20.079
  Groundwater Inflow .......         0.000         0.000
  RDII Inflow ..............         0.000         0.000
  External Inflow ..........         0.000         0.000
  External Outflow .........         0.618         6.178
  Flooding Loss ............         0.965         9.645
  Evaporation Loss .........         0.000         0.000
  Exfiltration Loss ........         0.000         0.000
  Initial Stored Volume ....         0.000         0.000
  Final Stored Volume ......         0.669         6.689
  Continuity Error (%) .....         6.338
  
  
  *************************
  Highest Continuity Errors
  *************************
  Node T5 (17.22%)
  Node T3 (16.15%)
  Node T2 (9.25%)
  Node J12 (6.99%)
  Node T4 (6.33%)
  
  
  ***************************
  Time-Step Critical Elements
  ***************************
  None
  
  
  ********************************
  Highest Flow Instability Indexes
  ********************************
  All links are stable.
  
  
  *************************
  Routing Time Step Summary
  *************************
  Minimum Time Step           :     4.50 sec
  Average Time Step           :     5.00 sec
  Maximum Time Step           :     5.00 sec
  Percent in Steady State     :     0.00
  Average Iterations per Step :     2.20
  Percent Not Converging      :     0.67
  
  
  ***************************
  Subcatchment Runoff Summary
  ***************************
  
  ------------------------------------------------------------------------------------------------------------------------------
                            Total      Total      Total      Total     Imperv       Perv      Total       Total     Peak  Runoff
                           Precip      Runon       Evap      Infil     Runoff     Runoff     Runoff      Runoff   Runoff   Coeff
  Subcatchment                 mm         mm         mm         mm         mm         mm         mm    10^6 ltr      CMS
  ------------------------------------------------------------------------------------------------------------------------------
  SC01                      11.27       0.00       0.00       0.00      11.19       0.00      11.19        3.69     0.91   0.992
  SC02                      11.27       0.00       0.00       0.00      11.18       0.00      11.18        2.54     0.62   0.992
  SC03                      11.27       0.00       0.00       0.00      11.20       0.00      11.20        2.02     0.52   0.994
  SC04                      11.27       0.00       0.00       0.00      11.08       0.00      11.08        0.76     0.16   0.983
  SC05                      11.27       0.00       0.00       0.00      11.18       0.00      11.18        1.74     0.42   0.992
  SC06                      11.27       0.00       0.00       0.00      11.03       0.00      11.03        3.59     0.69   0.978
  SC07                      11.27       0.00       0.00       0.00      11.08       0.00      11.08        0.53     0.11   0.983
  SC08                      11.27       0.00       0.00       0.00      11.16       0.00      11.16        3.12     0.72   0.990
  SC09                      11.27       0.00       0.00       0.00      11.13       0.00      11.13        0.77     0.17   0.988
  SC010                     11.27       0.00       0.00       0.00      11.16       0.00      11.16        1.31     0.30   0.990
  
  
  ******************
  Node Depth Summary
  ******************
  
  ---------------------------------------------------------------------------------
                                 Average  Maximum  Maximum  Time of Max    Reported
                                   Depth    Depth      HGL   Occurrence   Max Depth
  Node                 Type       Meters   Meters   Meters  days hr:min      Meters
  ---------------------------------------------------------------------------------
  J1                   JUNCTION     0.08     0.22    34.22     0  02:04        0.22
  J3                   JUNCTION     0.14     0.17    18.17     0  03:30        0.17
  CSO7                 JUNCTION     0.26     1.20    35.20     0  01:52        1.20
  J5                   JUNCTION     0.07     0.16    32.16     0  02:09        0.16
  CSO9                 JUNCTION     0.33     2.00    42.00     0  01:54        2.00
  J8                   JUNCTION     0.13     0.30    36.30     0  02:11        0.30
  CSO8                 JUNCTION     0.35     2.00    34.00     0  01:52        2.00
  J10                  JUNCTION     0.11     0.31    29.31     0  02:04        0.31
  J13                  JUNCTION     0.07     0.21    29.21     0  02:04        0.21
  J15                  JUNCTION     0.22     0.40    15.40     0  02:09        0.40
  J16                  JUNCTION     0.08     0.23    30.23     0  02:04        0.23
  CSO10                JUNCTION     0.20     1.00    31.00     0  01:52        1.00
  J12                  JUNCTION     0.67     1.02    27.02     0  03:22        1.02
  J4                   JUNCTION     0.21     1.35    34.35     0  01:52        0.76
  J6                   JUNCTION     0.09     0.12    25.12     0  03:26        0.12
  J2                   JUNCTION     0.07     0.08    25.08     0  03:10        0.08
  J19                  JUNCTION     0.15     0.17     8.17     0  02:04        0.17
  J9                   JUNCTION     0.13     0.16    29.16     0  03:30        0.16
  J14                  JUNCTION     0.15     0.19    20.19     0  06:01        0.19
  J17                  JUNCTION     0.11     0.15    20.15     0  03:13        0.15
  J7                   JUNCTION     0.10     0.23    39.23     0  02:30        0.23
  J11                  JUNCTION     0.11     0.30    31.30     0  02:31        0.30
  J18                  JUNCTION     0.06     0.16    29.16     0  02:30        0.16
  Out_to_WWTP          OUTFALL      0.15     0.17     6.17     0  02:04        0.17
  T5                   STORAGE      3.61     5.00    32.00     0  02:19        5.00
  T4                   STORAGE      2.32     4.52    31.52     0  03:25        4.52
  T6                   STORAGE      2.86     5.00    36.00     0  02:17        5.00
  T3                   STORAGE      3.59     5.00    27.00     0  03:17        5.00
  T2                   STORAGE      2.40     4.71    25.71     0  03:12        4.71
  T1                   STORAGE      3.90     5.00    15.00     0  02:03        5.00
  
  
  *******************
  Node Inflow Summary
  *******************
  
  -------------------------------------------------------------------------------------------------
                                  Maximum  Maximum                  Lateral       Total        Flow
                                  Lateral    Total  Time of Max      Inflow      Inflow     Balance
                                   Inflow   Inflow   Occurrence      Volume      Volume       Error
  Node                 Type           CMS      CMS  days hr:min    10^6 ltr    10^6 ltr     Percent
  -------------------------------------------------------------------------------------------------
  J1                   JUNCTION     0.443    0.443     0  02:04        2.31        2.31       0.010
  J3                   JUNCTION     0.000    0.305     0  03:26           0        6.32       0.773
  CSO7                 JUNCTION     0.119    0.119     0  02:09       0.817       0.817       0.058
  J5                   JUNCTION     0.162    0.233     0  02:09       0.892        1.61       0.061
  CSO9                 JUNCTION     0.177    0.177     0  02:07       0.964       0.964       0.041
  J8                   JUNCTION     0.728    0.856     0  02:10        4.53        5.43       0.061
  CSO8                 JUNCTION     0.729    0.729     0  02:05        3.42        3.42       0.011
  J10                  JUNCTION     0.538    1.024     0  02:03         2.4         5.5      -0.029
  J13                  JUNCTION     0.635    0.635     0  02:04        3.01        3.01      -0.215
  J15                  JUNCTION     0.000    1.398     0  02:05           0        14.3       0.818
  J16                  JUNCTION     0.929    0.929     0  02:04        4.25        4.25      -0.033
  CSO10                JUNCTION     0.309    0.309     0  02:05        1.45        1.45       0.016
  J12                  JUNCTION     0.000    1.148     0  02:05           0        8.88       7.516
  J4                   JUNCTION     0.000    0.075     0  01:52           0       0.721       0.455
  J6                   JUNCTION     0.000    0.076     0  03:25           0        1.38       0.373
  J2                   JUNCTION     0.000    0.039     0  02:19           0       0.872       0.604
  J19                  JUNCTION     0.000    0.271     0  02:03           0        6.19       0.204
  J9                   JUNCTION     0.000    0.175     0  02:18           0        3.39       0.532
  J14                  JUNCTION     0.000    0.190     0  03:17           0        4.09       0.245
  J17                  JUNCTION     0.000    0.136     0  03:12           0        2.46       0.446
  J7                   JUNCTION     0.000    0.127     0  02:30           0       0.902       0.347
  J11                  JUNCTION     0.000    0.486     0  02:31           0         3.1       0.205
  J18                  JUNCTION     0.000    0.202     0  02:30           0        1.31       0.027
  Out_to_WWTP          OUTFALL      0.000    0.271     0  02:05           0        6.18       0.000
  T5                   STORAGE      0.000    0.443     0  02:04           0        2.31      20.806
  T4                   STORAGE      0.000    0.233     0  02:09           0        1.61       6.756
  T6                   STORAGE      0.000    0.855     0  02:11           0        5.43       4.915
  T3                   STORAGE      0.000    1.140     0  02:07           0        8.26      19.267
  T2                   STORAGE      0.000    0.634     0  02:04           0        3.02      10.195
  T1                   STORAGE      0.000    1.383     0  02:09           0        14.2       6.180
  
  
  **********************
  Node Surcharge Summary
  **********************
  
  Surcharging occurs when water rises above the top of the highest conduit.
  ---------------------------------------------------------------------
                                               Max. Height   Min. Depth
                                   Hours       Above Crown    Below Rim
  Node                 Type      Surcharged         Meters       Meters
  ---------------------------------------------------------------------
  CSO7                 JUNCTION        1.29          0.945        0.000
  CSO9                 JUNCTION        1.32          1.682        0.000
  CSO8                 JUNCTION        1.31          1.547        0.000
  CSO10                JUNCTION        0.91          0.560        0.000
  J4                   JUNCTION        1.27          1.050        0.650
  
  
  *********************
  Node Flooding Summary
  *********************
  
  Flooding refers to all water that overflows a node, whether it ponds or not.
  --------------------------------------------------------------------------
                                                             Total   Maximum
                                 Maximum   Time of Max       Flood    Ponded
                        Hours       Rate    Occurrence      Volume     Depth
  Node                 Flooded       CMS   days hr:min    10^6 ltr    Meters
  --------------------------------------------------------------------------
  CSO7                    1.04     0.047      0  02:09       0.095     0.000
  CSO9                    0.60     0.049      0  02:07       0.062     0.000
  CSO8                    0.64     0.244      0  02:05       0.312     0.000
  CSO10                   0.66     0.107      0  02:05       0.139     0.000
  T5                      1.51     0.312      0  02:19       0.637     0.000
  T6                      1.39     0.661      0  02:17       1.613     0.000
  T3                      1.26     0.361      0  03:24       0.337     0.000
  T1                      5.77     1.112      0  02:09       6.450     0.000
  
  
  **********************
  Storage Volume Summary
  **********************
  
  --------------------------------------------------------------------------------------------------
                         Average     Avg  Evap Exfil       Maximum     Max    Time of Max    Maximum
                          Volume    Pcnt  Pcnt  Pcnt        Volume    Pcnt     Occurrence    Outflow
  Storage Unit           1000 m3    Full  Loss  Loss       1000 m3    Full    days hr:min        CMS
  --------------------------------------------------------------------------------------------------
  T5                       0.361      72     0     0         0.500     100       0  02:19      0.039
  T4                       0.232      46     0     0         0.452      90       0  03:25      0.076
  T6                       0.343      57     0     0         0.600     100       0  02:17      0.175
  T3                       1.864      72     0     0         2.600     100       0  03:17      0.237
  T2                       0.481      48     0     0         0.942      94       0  03:12      0.136
  T1                       0.546      78     0     0         0.700     100       0  02:03      0.271
  
  
  ***********************
  Outfall Loading Summary
  ***********************
  
  -----------------------------------------------------------
                         Flow       Avg       Max       Total
                         Freq      Flow      Flow      Volume
  Outfall Node           Pcnt       CMS       CMS    10^6 ltr
  -----------------------------------------------------------
  Out_to_WWTP           99.01     0.221     0.271       6.178
  -----------------------------------------------------------
  System                99.01     0.221     0.271       6.178
  
  
  ********************
  Link Flow Summary
  ********************
  
  -----------------------------------------------------------------------------
                                 Maximum  Time of Max   Maximum    Max/    Max/
                                  |Flow|   Occurrence   |Veloc|    Full    Full
  Link                 Type          CMS  days hr:min     m/sec    Flow   Depth
  -----------------------------------------------------------------------------
  C1                   CONDUIT     0.039     0  03:10      0.91    0.01    0.12
  C6                   CONDUIT     0.072     0  02:09      1.29    1.14    0.77
  C2                   CONDUIT     0.076     0  03:26      1.44    0.09    0.24
  C9                   CONDUIT     0.127     0  02:31      1.30    0.43    0.53
  C16                  CONDUIT     0.489     0  01:59      1.79    0.05    0.15
  C3                   CONDUIT     0.190     0  03:18      2.06    0.07    0.18
  C19                  CONDUIT     0.136     0  03:13      1.22    0.05    0.26
  C11                  CONDUIT     0.305     0  03:30      1.84    0.02    0.13
  C20                  CONDUIT     0.928     0  02:04      3.00    0.03    0.16
  C22                  CONDUIT     0.202     0  02:29      1.51    0.09    0.35
  C12                  CONDUIT     0.175     0  03:30      0.83    0.01    0.30
  C17                  CONDUIT     1.020     0  02:04      3.07    0.05    0.29
  C10                  CONDUIT     0.855     0  02:11      1.66    0.09    0.60
  C13                  CONDUIT     1.140     0  02:07      1.53    0.07    0.75
  C18                  CONDUIT     0.634     0  02:04      1.72    0.02    0.55
  C23                  CONDUIT     1.383     0  02:09      1.26    0.15    0.63
  C4                   CONDUIT     0.443     0  02:04      1.98    0.11    0.61
  C7                   CONDUIT     0.233     0  02:09      1.43    0.06    0.58
  C14                  CONDUIT     0.271     0  02:05      2.08    0.02    0.09
  C5                   CONDUIT     0.075     0  01:52      1.47    1.29    1.00
  C8                   CONDUIT     0.127     0  02:30      1.76    1.60    0.86
  C15                  CONDUIT     0.486     0  02:31      3.43    1.55    0.83
  C21                  CONDUIT     0.202     0  02:30      1.83    1.16    0.69
  V4                   ORIFICE     0.076     0  03:25                      1.00
  V5                   ORIFICE     0.039     0  02:19                      1.00
  V1                   ORIFICE     0.271     0  02:03                      1.00
  V6                   ORIFICE     0.175     0  02:18                      1.00
  V3                   ORIFICE     0.190     0  03:17                      1.00
  V2                   ORIFICE     0.136     0  03:12                      1.00
  
  
  ***************************
  Flow Classification Summary
  ***************************
  
  -------------------------------------------------------------------------------------
                      Adjusted    ---------- Fraction of Time in Flow Class ---------- 
                       /Actual         Up    Down  Sub   Sup   Up    Down  Norm  Inlet 
  Conduit               Length    Dry  Dry   Dry   Crit  Crit  Crit  Crit  Ltd   Ctrl  
  -------------------------------------------------------------------------------------
  C1                      1.00   0.00  0.00  0.00  0.92  0.08  0.00  0.00  0.95  0.00
  C6                      1.00   0.00  0.00  0.00  0.19  0.81  0.00  0.00  0.00  0.00
  C2                      1.00   0.00  0.00  0.00  0.01  0.99  0.00  0.00  0.94  0.00
  C9                      1.00   0.00  0.00  0.00  1.00  0.00  0.00  0.00  1.00  0.00
  C16                     1.00   0.00  0.00  0.00  0.56  0.44  0.00  0.00  0.48  0.00
  C3                      1.00   0.00  0.00  0.00  0.05  0.94  0.00  0.00  0.07  0.00
  C19                     1.00   0.00  0.00  0.00  0.64  0.36  0.00  0.00  1.00  0.00
  C11                     1.00   0.00  0.00  0.00  0.28  0.71  0.00  0.00  1.00  0.00
  C20                     1.00   0.00  0.00  0.00  0.64  0.36  0.00  0.00  0.98  0.00
  C22                     1.00   0.00  0.00  0.00  0.87  0.13  0.00  0.00  1.00  0.00
  C12                     1.00   0.00  0.00  0.00  0.94  0.06  0.00  0.00  1.00  0.00
  C17                     1.00   0.00  0.00  0.00  0.65  0.35  0.00  0.00  0.95  0.00
  C10                     1.00   0.00  0.00  0.00  0.94  0.06  0.00  0.00  0.97  0.00
  C13                     1.00   0.00  0.00  0.00  0.83  0.17  0.00  0.00  0.25  0.00
  C18                     1.00   0.00  0.00  0.00  0.83  0.17  0.00  0.00  0.97  0.00
  C23                     1.00   0.00  0.00  0.00  0.90  0.10  0.00  0.00  0.94  0.00
  C4                      1.00   0.00  0.00  0.00  0.96  0.04  0.00  0.00  0.98  0.00
  C7                      1.00   0.00  0.00  0.00  0.91  0.09  0.00  0.00  0.96  0.00
  C14                     1.00   0.00  0.00  0.00  0.00  0.99  0.00  0.00  0.00  0.00
  C5                      1.00   0.00  0.00  0.00  0.91  0.09  0.00  0.00  0.81  0.00
  C8                      1.00   0.00  0.00  0.00  0.19  0.81  0.00  0.00  0.00  0.00
  C15                     1.00   0.00  0.00  0.00  0.00  1.00  0.00  0.00  0.00  0.00
  C21                     1.00   0.00  0.00  0.00  0.01  0.99  0.00  0.00  0.00  0.00
  
  
  *************************
  Conduit Surcharge Summary
  *************************
  
  ----------------------------------------------------------------------------
                                                           Hours        Hours 
                         --------- Hours Full --------   Above Full   Capacity
  Conduit                Both Ends  Upstream  Dnstream   Normal Flow   Limited
  ----------------------------------------------------------------------------
  C6                          0.01      1.27      0.01      1.17         0.01
  C10                         0.01      0.01      5.80      0.01         0.01
  C13                         0.01      0.01      5.74      0.01         0.01
  C18                         0.01      0.01      4.66      0.01         0.01
  C23                         0.01      0.01      6.17      0.01         0.01
  C4                          0.01      0.01      6.21      0.01         0.01
  C7                          0.01      0.01      5.90      0.01         0.01
  C5                          1.28      1.29      1.38      1.33         1.25
  C8                          0.01      1.32      0.01      1.33         0.01
  C15                         0.01      1.31      0.01      1.37         0.01
  C21                         0.01      0.91      0.01      0.87         0.01
  

  Analysis begun on:  Fri Sep  3 17:58:05 2021
  Analysis ended on:  Fri Sep  3 17:58:05 2021
  Total elapsed time: < 1 sec