
  EPA STORM WATER MANAGEMENT MODEL - VERSION 5.1 (Build 5.3.0.dev0)
  --------------------------------------------------------------

  WARNING 09: time series interval greater than recording interval for Rain Gage RG1
  WARNING 09: time series interval greater than recording interval for Rain Gage RG2
  WARNING 09: time series interval greater than recording interval for Rain Gage RG3
  WARNING 09: time series interval greater than recording interval for Rain Gage RG4
  
  *********************************************************
  NOTE: The summary statistics displayed in this report are
  based on results found at every computational time step,  
  not just on results from each reporting time step.
  *********************************************************
  
  ****************
  Analysis Options
  ****************
  Flow Units ............... CMS
  Process Models:
    Rainfall/Runoff ........ YES
    RDII ................... NO
    Snowmelt ............... NO
    Groundwater ............ NO
    Flow Routing ........... YES
    Ponding Allowed ........ YES
    Water Quality .......... NO
  Infiltration Method ...... HORTON
  Flow Routing Method ...... DYNWAVE
  Surcharge Method ......... EXTRAN
  Starting Date ............ 08/28/2015 00:00:00
  Ending Date .............. 08/28/2015 23:40:00
  Antecedent Dry Days ...... 0.0
  Report Time Step ......... 00:01:00
  Wet Time Step ............ 00:01:00
  Dry Time Step ............ 00:01:00
  Routing Time Step ........ 5.00 sec
  Variable Time Step ....... YES
  Maximum Trials ........... 8
  Number of Threads ........ 1
  Head Tolerance ........... 0.001500 m
  
  
  **************************        Volume         Depth
  Runoff Quantity Continuity     hectare-m            mm
  **************************     ---------       -------
  Total Precipitation ......         2.254        12.508
  Evaporation Loss .........         0.000         0.000
  Infiltration Loss ........         0.000         0.000
  Surface Runoff ...........         2.231        12.381
  Final Storage ............         0.024         0.134
  Continuity Error (%) .....        -0.060
  
  
  **************************        Volume        Volume
  Flow Routing Continuity        hectare-m      10^6 ltr
  **************************     ---------     ---------
  Dry Weather Inflow .......         0.758         7.576
  Wet Weather Inflow .......         2.231        22.311
  Groundwater Inflow .......         0.000         0.000
  RDII Inflow ..............         0.000         0.000
  External Inflow ..........         0.000         0.000
  External Outflow .........         1.655        16.555
  Flooding Loss ............         0.674         6.740
  Evaporation Loss .........         0.000         0.000
  Exfiltration Loss ........         0.000         0.000
  Initial Stored Volume ....         0.000         0.000
  Final Stored Volume ......         0.521         5.215
  Continuity Error (%) .....         4.607
  
  
  *************************
  Highest Continuity Errors
  *************************
  Node T5 (10.30%)
  Node T3 (9.44%)
  Node T1 (3.26%)
  Node J12 (3.08%)
  Node T6 (1.63%)
  
  
  ***************************
  Time-Step Critical Elements
  ***************************
  None
  
  
  ********************************
  Highest Flow Instability Indexes
  ********************************
  Link C15 (1)
  
  
  *************************
  Routing Time Step Summary
  *************************
  Minimum Time Step           :     4.50 sec
  Average Time Step           :     5.00 sec
  Maximum Time Step           :     5.00 sec
  Percent in Steady State     :     0.00
  Average Iterations per Step :     2.02
  Percent Not Converging      :     0.05
  
  
  ***************************
  Subcatchment Runoff Summary
  ***************************
  
  ------------------------------------------------------------------------------------------------------------------------------
                            Total      Total      Total      Total     Imperv       Perv      Total       Total     Peak  Runoff
                           Precip      Runon       Evap      Infil     Runoff     Runoff     Runoff      Runoff   Runoff   Coeff
  Subcatchment                 mm         mm         mm         mm         mm         mm         mm    10^6 ltr      CMS
  ------------------------------------------------------------------------------------------------------------------------------
  SC01                      14.15       0.00       0.00       0.00      14.07       0.00      14.07        4.64     0.46   0.994
  SC02                       8.59       0.00       0.00       0.00       8.51       0.00       8.51        1.94     0.26   0.990
  SC03                      12.15       0.00       0.00       0.00      12.09       0.00      12.09        2.18     0.18   0.995
  SC04                       8.59       0.00       0.00       0.00       8.42       0.00       8.42        0.58     0.06   0.981
  SC05                      14.15       0.00       0.00       0.00      14.06       0.00      14.06        2.19     0.21   0.994
  SC06                      13.83       0.00       0.00       0.00      13.58       0.00      13.58        4.42     0.33   0.982
  SC07                       8.59       0.00       0.00       0.00       8.42       0.00       8.42        0.40     0.04   0.981
  SC08                      12.15       0.00       0.00       0.00      12.03       0.00      12.03        3.37     0.22   0.990
  SC09                      13.83       0.00       0.00       0.00      13.68       0.00      13.68        0.94     0.09   0.989
  SC010                     14.15       0.00       0.00       0.00      14.04       0.00      14.04        1.65     0.14   0.992
  
  
  ******************
  Node Depth Summary
  ******************
  
  ---------------------------------------------------------------------------------
                                 Average  Maximum  Maximum  Time of Max    Reported
                                   Depth    Depth      HGL   Occurrence   Max Depth
  Node                 Type       Meters   Meters   Meters  days hr:min      Meters
  ---------------------------------------------------------------------------------
  J1                   JUNCTION     0.06     0.16    34.16     0  12:12        0.16
  J3                   JUNCTION     0.12     0.16    18.16     0  19:00        0.16
  CSO7                 JUNCTION     0.07     0.19    34.19     0  12:16        0.19
  J5                   JUNCTION     0.05     0.11    32.11     0  12:17        0.11
  CSO9                 JUNCTION     0.09     0.93    40.93     0  12:05        0.91
  J8                   JUNCTION     0.09     0.22    36.22     0  12:12        0.22
  CSO8                 JUNCTION     0.10     0.30    32.30     0  12:01        0.29
  J10                  JUNCTION     0.08     0.19    29.19     0  12:03        0.19
  J13                  JUNCTION     0.05     0.14    29.14     0  12:12        0.14
  J15                  JUNCTION     0.17     0.30    15.30     0  12:18        0.30
  J16                  JUNCTION     0.06     0.16    30.16     0  12:12        0.16
  CSO10                JUNCTION     0.10     0.33    30.33     0  12:16        0.33
  J12                  JUNCTION     0.32     1.01    27.01     0  19:03        1.01
  J4                   JUNCTION     0.09     0.22    33.22     0  12:18        0.22
  J6                   JUNCTION     0.06     0.09    25.09     0  13:08        0.09
  J2                   JUNCTION     0.06     0.08    25.08     0  17:16        0.08
  J19                  JUNCTION     0.14     0.17     8.17     0  12:19        0.17
  J9                   JUNCTION     0.11     0.16    29.16     0  19:16        0.16
  J14                  JUNCTION     0.14     0.19    20.19     0  21:04        0.19
  J17                  JUNCTION     0.07     0.11    20.11     0  12:53        0.11
  J7                   JUNCTION     0.07     0.19    39.19     0  12:12        0.19
  J11                  JUNCTION     0.08     0.20    31.20     0  12:03        0.20
  J18                  JUNCTION     0.05     0.14    29.14     0  12:18        0.14
  Out_to_WWTP          OUTFALL      0.14     0.17     6.17     0  22:29        0.17
  T5                   STORAGE      2.48     5.00    32.00     0  16:30        5.00
  T4                   STORAGE      0.47     1.61    28.61     0  13:07        1.61
  T6                   STORAGE      1.68     4.54    35.54     0  19:14        4.54
  T3                   STORAGE      2.21     5.00    27.00     0  18:56        5.00
  T2                   STORAGE      0.41     1.43    22.43     0  12:52        1.43
  T1                   STORAGE      3.01     5.00    15.00     0  12:17        5.00
  
  
  *******************
  Node Inflow Summary
  *******************
  
  -------------------------------------------------------------------------------------------------
                                  Maximum  Maximum                  Lateral       Total        Flow
                                  Lateral    Total  Time of Max      Inflow      Inflow     Balance
                                   Inflow   Inflow   Occurrence      Volume      Volume       Error
  Node                 Type           CMS      CMS  days hr:min    10^6 ltr    10^6 ltr     Percent
  -------------------------------------------------------------------------------------------------
  J1                   JUNCTION     0.234    0.234     0  12:11        3.29        3.29      -0.068
  J3                   JUNCTION     0.000    0.258     0  18:57           0        13.3       0.322
  CSO7                 JUNCTION     0.054    0.054     0  12:11       0.965       0.965       0.013
  J5                   JUNCTION     0.065    0.113     0  12:16       0.829        1.79      -0.032
  CSO9                 JUNCTION     0.095    0.095     0  12:11        1.33        1.33      -0.021
  J8                   JUNCTION     0.374    0.456     0  12:11        6.25        7.58      -0.037
  CSO8                 JUNCTION     0.231    0.231     0  12:01        3.82        3.82      -0.003
  J10                  JUNCTION     0.196    0.387     0  12:01        2.93        6.74      -0.102
  J13                  JUNCTION     0.284    0.284     0  12:11        2.84        2.84      -0.229
  J15                  JUNCTION     0.000    0.822     0  17:12           0        23.8       0.352
  J16                  JUNCTION     0.481    0.481     0  12:11        5.72        5.72      -0.067
  CSO10                JUNCTION     0.151    0.151     0  12:11        1.92        1.92       0.003
  J12                  JUNCTION     0.000    0.464     0  16:53           0        14.1       3.174
  J4                   JUNCTION     0.000    0.052     0  12:16           0       0.965       0.133
  J6                   JUNCTION     0.000    0.045     0  13:07           0        1.79       0.023
  J2                   JUNCTION     0.000    0.039     0  16:30           0        2.11       0.231
  J19                  JUNCTION     0.000    0.271     0  12:17           0        16.6       0.074
  J9                   JUNCTION     0.000    0.167     0  19:14           0        7.37       0.195
  J14                  JUNCTION     0.000    0.190     0  18:56           0        9.45       0.104
  J17                  JUNCTION     0.000    0.074     0  12:52           0        2.84       0.033
  J7                   JUNCTION     0.000    0.094     0  12:11           0        1.33       0.097
  J11                  JUNCTION     0.000    0.229     0  12:01           0        3.82       0.072
  J18                  JUNCTION     0.000    0.144     0  12:16           0        1.92      -0.035
  Out_to_WWTP          OUTFALL      0.000    0.271     0  12:19           0        16.6       0.000
  T5                   STORAGE      0.000    0.217     0  12:12           0        3.29      11.489
  T4                   STORAGE      0.000    0.110     0  12:17           0        1.79       0.086
  T6                   STORAGE      0.000    0.438     0  12:12           0        7.58       1.655
  T3                   STORAGE      0.000    0.457     0  16:54           0        13.7      10.422
  T2                   STORAGE      0.000    0.260     0  12:12           0        2.85       0.257
  T1                   STORAGE      0.000    0.767     0  12:18           0        23.7       3.368
  
  
  **********************
  Node Surcharge Summary
  **********************
  
  Surcharging occurs when water rises above the top of the highest conduit.
  ---------------------------------------------------------------------
                                               Max. Height   Min. Depth
                                   Hours       Above Crown    Below Rim
  Node                 Type      Surcharged         Meters       Meters
  ---------------------------------------------------------------------
  CSO9                 JUNCTION        0.25          0.617        1.065
  
  
  *********************
  Node Flooding Summary
  *********************
  
  Flooding refers to all water that overflows a node, whether it ponds or not.
  --------------------------------------------------------------------------
                                                             Total   Maximum
                                 Maximum   Time of Max       Flood    Ponded
                        Hours       Rate    Occurrence      Volume     Depth
  Node                 Flooded       CMS   days hr:min    10^6 ltr    Meters
  --------------------------------------------------------------------------
  T5                      3.05     0.152      0  17:12       0.502     0.000
  T3                      1.56     0.213      0  19:19       0.524     0.000
  T1                      9.86     0.496      0  12:18       5.714     0.000
  
  
  **********************
  Storage Volume Summary
  **********************
  
  --------------------------------------------------------------------------------------------------
                         Average     Avg  Evap Exfil       Maximum     Max    Time of Max    Maximum
                          Volume    Pcnt  Pcnt  Pcnt        Volume    Pcnt     Occurrence    Outflow
  Storage Unit           1000 m3    Full  Loss  Loss       1000 m3    Full    days hr:min        CMS
  --------------------------------------------------------------------------------------------------
  T5                       0.248      50     0     0         0.500     100       0  16:30      0.039
  T4                       0.047       9     0     0         0.161      32       0  13:07      0.045
  T6                       0.202      34     0     0         0.545      91       0  19:14      0.167
  T3                       1.151      44     0     0         2.600     100       0  18:56      0.190
  T2                       0.082       8     0     0         0.286      29       0  12:52      0.074
  T1                       0.422      60     0     0         0.700     100       0  12:17      0.271
  
  
  ***********************
  Outfall Loading Summary
  ***********************
  
  -----------------------------------------------------------
                         Flow       Avg       Max       Total
                         Freq      Flow      Flow      Volume
  Outfall Node           Pcnt       CMS       CMS    10^6 ltr
  -----------------------------------------------------------
  Out_to_WWTP           99.62     0.195     0.271      16.555
  -----------------------------------------------------------
  System                99.62     0.195     0.271      16.555
  
  
  ********************
  Link Flow Summary
  ********************
  
  -----------------------------------------------------------------------------
                                 Maximum  Time of Max   Maximum    Max/    Max/
                                  |Flow|   Occurrence   |Veloc|    Full    Full
  Link                 Type          CMS  days hr:min     m/sec    Flow   Depth
  -----------------------------------------------------------------------------
  C1                   CONDUIT     0.039     0  17:16      0.93    0.01    0.12
  C6                   CONDUIT     0.050     0  12:19      1.25    0.80    0.56
  C2                   CONDUIT     0.045     0  13:08      1.15    0.05    0.20
  C9                   CONDUIT     0.086     0  12:12      1.16    0.29    0.40
  C16                  CONDUIT     0.208     0  12:03      1.35    0.02    0.10
  C3                   CONDUIT     0.190     0  18:59      2.13    0.07    0.17
  C19                  CONDUIT     0.074     0  12:53      0.91    0.03    0.20
  C11                  CONDUIT     0.258     0  19:01      1.96    0.01    0.11
  C20                  CONDUIT     0.441     0  12:12      2.33    0.01    0.11
  C22                  CONDUIT     0.138     0  12:18      1.27    0.06    0.27
  C12                  CONDUIT     0.167     0  19:16      1.37    0.01    0.29
  C17                  CONDUIT     0.370     0  12:03      2.19    0.02    0.28
  C10                  CONDUIT     0.438     0  12:12      1.44    0.05    0.57
  C13                  CONDUIT     0.457     0  16:54      2.27    0.03    0.75
  C18                  CONDUIT     0.260     0  12:12      2.06    0.01    0.38
  C23                  CONDUIT     0.767     0  12:18      1.82    0.08    0.60
  C4                   CONDUIT     0.217     0  12:12      1.75    0.05    0.58
  C7                   CONDUIT     0.110     0  12:17      1.54    0.03    0.56
  C14                  CONDUIT     0.271     0  12:19      2.08    0.02    0.09
  C5                   CONDUIT     0.052     0  12:16      1.23    0.90    0.80
  C8                   CONDUIT     0.094     0  12:11      1.41    1.19    0.79
  C15                  CONDUIT     0.229     0  12:01      2.56    0.73    0.54
  C21                  CONDUIT     0.144     0  12:16      1.78    0.83    0.53
  V4                   ORIFICE     0.045     0  13:07                      1.00
  V5                   ORIFICE     0.039     0  16:30                      1.00
  V1                   ORIFICE     0.271     0  12:17                      1.00
  V6                   ORIFICE     0.167     0  19:14                      1.00
  V3                   ORIFICE     0.190     0  18:56                      1.00
  V2                   ORIFICE     0.074     0  12:52                      1.00
  
  
  ***************************
  Flow Classification Summary
  ***************************
  
  -------------------------------------------------------------------------------------
                      Adjusted    ---------- Fraction of Time in Flow Class ---------- 
                       /Actual         Up    Down  Sub   Sup   Up    Down  Norm  Inlet 
  Conduit               Length    Dry  Dry   Dry   Crit  Crit  Crit  Crit  Ltd   Ctrl  
  -------------------------------------------------------------------------------------
  C1                      1.00   0.00  0.00  0.00  0.98  0.02  0.00  0.00  0.98  0.00
  C6                      1.00   0.00  0.00  0.00  0.01  0.99  0.00  0.00  0.00  0.00
  C2                      1.00   0.00  0.00  0.00  0.53  0.47  0.00  0.00  0.99  0.00
  C9                      1.00   0.00  0.00  0.00  1.00  0.00  0.00  0.00  1.00  0.00
  C16                     1.00   0.00  0.00  0.00  0.45  0.55  0.00  0.00  0.36  0.00
  C3                      1.00   0.00  0.00  0.00  0.01  0.99  0.00  0.00  0.01  0.00
  C19                     1.00   0.00  0.00  0.00  1.00  0.00  0.00  0.00  1.00  0.00
  C11                     1.00   0.00  0.00  0.00  0.07  0.92  0.00  0.00  1.00  0.00
  C20                     1.00   0.00  0.00  0.00  0.73  0.27  0.00  0.00  0.99  0.00
  C22                     1.00   0.00  0.00  0.00  0.97  0.03  0.00  0.00  1.00  0.00
  C12                     1.00   0.00  0.00  0.00  0.47  0.53  0.00  0.00  0.94  0.00
  C17                     1.00   0.00  0.00  0.00  0.56  0.44  0.00  0.00  0.99  0.00
  C10                     1.00   0.00  0.00  0.00  0.98  0.02  0.00  0.00  0.99  0.00
  C13                     1.00   0.00  0.00  0.00  0.98  0.02  0.00  0.00  0.70  0.00
  C18                     1.00   0.00  0.00  0.00  0.78  0.22  0.00  0.00  0.99  0.00
  C23                     1.00   0.00  0.00  0.00  0.98  0.02  0.00  0.00  0.98  0.00
  C4                      1.00   0.00  0.00  0.00  0.98  0.02  0.00  0.00  0.99  0.00
  C7                      1.00   0.00  0.00  0.00  0.89  0.11  0.00  0.00  0.98  0.00
  C14                     1.00   0.00  0.00  0.00  0.00  1.00  0.00  0.00  0.37  0.00
  C5                      1.00   0.00  0.00  0.00  0.93  0.07  0.00  0.00  0.98  0.00
  C8                      1.00   0.00  0.00  0.00  0.14  0.86  0.00  0.00  0.00  0.00
  C15                     1.00   0.00  0.00  0.00  0.00  1.00  0.00  0.00  0.00  0.00
  C21                     1.00   0.00  0.00  0.00  0.00  1.00  0.00  0.00  0.00  0.00
  
  
  *************************
  Conduit Surcharge Summary
  *************************
  
  ----------------------------------------------------------------------------
                                                           Hours        Hours 
                         --------- Hours Full --------   Above Full   Capacity
  Conduit                Both Ends  Upstream  Dnstream   Normal Flow   Limited
  ----------------------------------------------------------------------------
  C10                         0.01      0.01     10.55      0.01         0.01
  C13                         0.01      0.01     11.14      0.01         0.01
  C23                         0.01      0.01     13.16      0.01         0.01
  C4                          0.01      0.01     12.90      0.01         0.01
  C7                          0.01      0.01      2.79      0.01         0.01
  C8                          0.01      0.25      0.01      0.21         0.01
  

  Analysis begun on:  Tue Sep 21 03:07:06 2021
  Analysis ended on:  Tue Sep 21 03:07:07 2021
  Total elapsed time: 00:00:01