
  EPA STORM WATER MANAGEMENT MODEL - VERSION 5.1 (Build 5.3.0.dev0)
  --------------------------------------------------------------

  WARNING 09: time series interval greater than recording interval for Rain Gage RG1
  WARNING 09: time series interval greater than recording interval for Rain Gage RG2
  WARNING 09: time series interval greater than recording interval for Rain Gage RG3
  WARNING 09: time series interval greater than recording interval for Rain Gage RG4
  
  *********************************************************
  NOTE: The summary statistics displayed in this report are
  based on results found at every computational time step,  
  not just on results from each reporting time step.
  *********************************************************
  
  ****************
  Analysis Options
  ****************
  Flow Units ............... CMS
  Process Models:
    Rainfall/Runoff ........ YES
    RDII ................... NO
    Snowmelt ............... NO
    Groundwater ............ NO
    Flow Routing ........... YES
    Ponding Allowed ........ YES
    Water Quality .......... NO
  Infiltration Method ...... HORTON
  Flow Routing Method ...... DYNWAVE
  Surcharge Method ......... EXTRAN
  Starting Date ............ 08/28/2015 00:00:00
  Ending Date .............. 08/28/2015 23:40:00
  Antecedent Dry Days ...... 0.0
  Report Time Step ......... 00:01:00
  Wet Time Step ............ 00:01:00
  Dry Time Step ............ 00:01:00
  Routing Time Step ........ 5.00 sec
  Variable Time Step ....... YES
  Maximum Trials ........... 8
  Number of Threads ........ 1
  Head Tolerance ........... 0.001500 m
  
  
  **************************        Volume         Depth
  Runoff Quantity Continuity     hectare-m            mm
  **************************     ---------       -------
  Total Precipitation ......         2.666        14.793
  Evaporation Loss .........         0.000         0.000
  Infiltration Loss ........         0.000         0.000
  Surface Runoff ...........         2.536        14.075
  Final Storage ............         0.132         0.730
  Continuity Error (%) .....        -0.079
  
  
  **************************        Volume        Volume
  Flow Routing Continuity        hectare-m      10^6 ltr
  **************************     ---------     ---------
  Dry Weather Inflow .......         0.758         7.576
  Wet Weather Inflow .......         2.535        25.349
  Groundwater Inflow .......         0.000         0.000
  RDII Inflow ..............         0.000         0.000
  External Inflow ..........         0.000         0.000
  External Outflow .........         1.559        15.592
  Flooding Loss ............         0.844         8.440
  Evaporation Loss .........         0.000         0.000
  Exfiltration Loss ........         0.000         0.000
  Initial Stored Volume ....         0.000         0.000
  Final Stored Volume ......         0.697         6.973
  Continuity Error (%) .....         5.832
  
  
  *************************
  Highest Continuity Errors
  *************************
  Node T5 (15.06%)
  Node T3 (9.51%)
  Node T6 (6.73%)
  Node J12 (5.36%)
  Node T1 (3.44%)
  
  
  ***************************
  Time-Step Critical Elements
  ***************************
  None
  
  
  ********************************
  Highest Flow Instability Indexes
  ********************************
  Link C15 (2)
  Link C20 (1)
  
  
  *************************
  Routing Time Step Summary
  *************************
  Minimum Time Step           :     4.50 sec
  Average Time Step           :     5.00 sec
  Maximum Time Step           :     5.00 sec
  Percent in Steady State     :     0.00
  Average Iterations per Step :     2.00
  Percent Not Converging      :     0.00
  
  
  ***************************
  Subcatchment Runoff Summary
  ***************************
  
  ------------------------------------------------------------------------------------------------------------------------------
                            Total      Total      Total      Total     Imperv       Perv      Total       Total     Peak  Runoff
                           Precip      Runon       Evap      Infil     Runoff     Runoff     Runoff      Runoff   Runoff   Coeff
  Subcatchment                 mm         mm         mm         mm         mm         mm         mm    10^6 ltr      CMS
  ------------------------------------------------------------------------------------------------------------------------------
  SC01                      14.06       0.00       0.00       0.00      13.53       0.00      13.53        4.47     0.19   0.962
  SC02                      13.07       0.00       0.00       0.00      12.58       0.00      12.58        2.86     0.12   0.963
  SC03                      16.61       0.00       0.00       0.00      16.18       0.00      16.18        2.91     0.14   0.974
  SC04                      13.07       0.00       0.00       0.00      12.25       0.00      12.25        0.85     0.03   0.938
  SC05                      14.06       0.00       0.00       0.00      13.50       0.00      13.50        2.11     0.08   0.960
  SC06                      15.30       0.00       0.00       0.00      14.08       0.00      14.08        4.58     0.16   0.920
  SC07                      13.07       0.00       0.00       0.00      12.26       0.00      12.26        0.58     0.02   0.938
  SC08                      16.61       0.00       0.00       0.00      15.85       0.00      15.85        4.44     0.18   0.954
  SC09                      15.30       0.00       0.00       0.00      14.43       0.00      14.43        1.00     0.04   0.943
  SC010                     14.06       0.00       0.00       0.00      13.40       0.00      13.40        1.57     0.06   0.953
  
  
  ******************
  Node Depth Summary
  ******************
  
  ---------------------------------------------------------------------------------
                                 Average  Maximum  Maximum  Time of Max    Reported
                                   Depth    Depth      HGL   Occurrence   Max Depth
  Node                 Type       Meters   Meters   Meters  days hr:min      Meters
  ---------------------------------------------------------------------------------
  J1                   JUNCTION     0.06     0.10    34.10     0  08:42        0.10
  J3                   JUNCTION     0.11     0.16    18.16     0  22:04        0.16
  CSO7                 JUNCTION     0.08     0.13    34.13     0  11:01        0.13
  J5                   JUNCTION     0.05     0.09    32.09     0  11:12        0.09
  CSO9                 JUNCTION     0.09     0.16    40.16     0  21:37        0.16
  J8                   JUNCTION     0.09     0.15    36.15     0  21:42        0.15
  CSO8                 JUNCTION     0.11     0.26    32.26     0  21:21        0.25
  J10                  JUNCTION     0.09     0.17    29.17     0  21:23        0.17
  J13                  JUNCTION     0.05     0.10    29.10     0  08:37        0.10
  J15                  JUNCTION     0.17     0.24    15.24     0  21:23        0.24
  J16                  JUNCTION     0.06     0.11    30.11     0  08:42        0.11
  CSO10                JUNCTION     0.10     0.19    30.19     0  08:42        0.19
  J12                  JUNCTION     0.32     1.01    27.01     0  21:05        1.01
  J4                   JUNCTION     0.10     0.16    33.16     0  11:13        0.16
  J6                   JUNCTION     0.06     0.09    25.09     0  12:08        0.09
  J2                   JUNCTION     0.06     0.08    25.08     0  20:46        0.08
  J19                  JUNCTION     0.13     0.17     8.17     0  10:34        0.17
  J9                   JUNCTION     0.10     0.15    29.15     0  18:41        0.15
  J14                  JUNCTION     0.13     0.19    20.19     0  23:40        0.19
  J17                  JUNCTION     0.08     0.11    20.11     0  11:54        0.11
  J7                   JUNCTION     0.07     0.12    39.12     0  21:43        0.12
  J11                  JUNCTION     0.09     0.18    31.18     0  21:27        0.18
  J18                  JUNCTION     0.05     0.09    29.09     0  08:47        0.09
  Out_to_WWTP          OUTFALL      0.13     0.17     6.17     0  10:32        0.17
  T5                   STORAGE      2.67     5.00    32.00     0  17:49        5.00
  T4                   STORAGE      0.67     1.58    28.58     0  12:06        1.58
  T6                   STORAGE      1.49     3.32    34.32     0  18:38        3.32
  T3                   STORAGE      2.41     5.00    27.00     0  21:02        5.00
  T2                   STORAGE      0.61     1.38    22.38     0  11:52        1.38
  T1                   STORAGE      3.13     5.00    15.00     0  10:33        5.00
  
  
  *******************
  Node Inflow Summary
  *******************
  
  -------------------------------------------------------------------------------------------------
                                  Maximum  Maximum                  Lateral       Total        Flow
                                  Lateral    Total  Time of Max      Inflow      Inflow     Balance
                                   Inflow   Inflow   Occurrence      Volume      Volume       Error
  Node                 Type           CMS      CMS  days hr:min    10^6 ltr    10^6 ltr     Percent
  -------------------------------------------------------------------------------------------------
  J1                   JUNCTION     0.101    0.101     0  08:41         3.2         3.2       0.121
  J3                   JUNCTION     0.000    0.262     0  22:02           0        13.5       0.344
  CSO7                 JUNCTION     0.031    0.031     0  11:01        1.15        1.15       0.048
  J5                   JUNCTION     0.034    0.063     0  11:11        1.09        2.24       0.147
  CSO9                 JUNCTION     0.040    0.040     0  21:36        1.38        1.38       0.086
  J8                   JUNCTION     0.170    0.206     0  21:41        6.41        7.78       0.247
  CSO8                 JUNCTION     0.184    0.184     0  21:21        4.88        4.88       0.047
  J10                  JUNCTION     0.149    0.298     0  21:21        3.66        8.52       0.288
  J13                  JUNCTION     0.130    0.130     0  08:36        3.77        3.77       0.041
  J15                  JUNCTION     0.000    0.504     0  21:17           0        24.3       0.537
  J16                  JUNCTION     0.203    0.203     0  08:41        5.54        5.54       0.138
  CSO10                JUNCTION     0.061    0.061     0  08:41        1.84        1.84       0.091
  J12                  JUNCTION     0.000    0.410     0  21:27           0        15.3       5.667
  J4                   JUNCTION     0.000    0.031     0  11:01           0        1.15       0.353
  J6                   JUNCTION     0.000    0.045     0  12:06           0        2.12       0.195
  J2                   JUNCTION     0.000    0.039     0  17:49           0        2.08       0.282
  J19                  JUNCTION     0.000    0.271     0  10:33           0        15.6       0.081
  J9                   JUNCTION     0.000    0.142     0  18:38           0        6.88       0.379
  J14                  JUNCTION     0.000    0.190     0  21:02           0        9.31       0.109
  J17                  JUNCTION     0.000    0.073     0  11:52           0        3.52       0.225
  J7                   JUNCTION     0.000    0.038     0  21:37           0        1.38       0.532
  J11                  JUNCTION     0.000    0.182     0  21:21           0        4.88       0.485
  J18                  JUNCTION     0.000    0.058     0  08:42           0        1.84       0.337
  Out_to_WWTP          OUTFALL      0.000    0.271     0  10:34           0        15.6       0.000
  T5                   STORAGE      0.000    0.094     0  08:42           0        3.19      17.735
  T4                   STORAGE      0.000    0.062     0  11:12           0        2.23       2.362
  T6                   STORAGE      0.000    0.200     0  21:42           0        7.76       7.221
  T3                   STORAGE      0.000    0.472     0  21:21           0        14.5      10.511
  T2                   STORAGE      0.000    0.122     0  08:37           0        3.77       3.024
  T1                   STORAGE      0.000    0.497     0  21:23           0        24.2       3.559
  
  
  **********************
  Node Surcharge Summary
  **********************
  
  No nodes were surcharged.
  
  
  *********************
  Node Flooding Summary
  *********************
  
  Flooding refers to all water that overflows a node, whether it ponds or not.
  --------------------------------------------------------------------------
                                                             Total   Maximum
                                 Maximum   Time of Max       Flood    Ponded
                        Hours       Rate    Occurrence      Volume     Depth
  Node                 Flooded       CMS   days hr:min    10^6 ltr    Meters
  --------------------------------------------------------------------------
  T5                      2.50     0.034      0  17:52       0.149     0.000
  T3                      2.63     0.282      0  21:21       1.227     0.000
  T1                     13.12     0.227      0  21:23       7.064     0.000
  
  
  **********************
  Storage Volume Summary
  **********************
  
  --------------------------------------------------------------------------------------------------
                         Average     Avg  Evap Exfil       Maximum     Max    Time of Max    Maximum
                          Volume    Pcnt  Pcnt  Pcnt        Volume    Pcnt     Occurrence    Outflow
  Storage Unit           1000 m3    Full  Loss  Loss       1000 m3    Full    days hr:min        CMS
  --------------------------------------------------------------------------------------------------
  T5                       0.267      53     0     0         0.500     100       0  17:49      0.039
  T4                       0.067      13     0     0         0.158      32       0  12:06      0.045
  T6                       0.179      30     0     0         0.398      66       0  18:38      0.142
  T3                       1.256      48     0     0         2.600     100       0  21:02      0.190
  T2                       0.123      12     0     0         0.276      28       0  11:52      0.073
  T1                       0.438      63     0     0         0.700     100       0  10:33      0.271
  
  
  ***********************
  Outfall Loading Summary
  ***********************
  
  -----------------------------------------------------------
                         Flow       Avg       Max       Total
                         Freq      Flow      Flow      Volume
  Outfall Node           Pcnt       CMS       CMS    10^6 ltr
  -----------------------------------------------------------
  Out_to_WWTP           99.43     0.184     0.271      15.592
  -----------------------------------------------------------
  System                99.43     0.184     0.271      15.592
  
  
  ********************
  Link Flow Summary
  ********************
  
  -----------------------------------------------------------------------------
                                 Maximum  Time of Max   Maximum    Max/    Max/
                                  |Flow|   Occurrence   |Veloc|    Full    Full
  Link                 Type          CMS  days hr:min     m/sec    Flow   Depth
  -----------------------------------------------------------------------------
  C1                   CONDUIT     0.039     0  20:46      0.75    0.01    0.12
  C6                   CONDUIT     0.030     0  11:13      1.11    0.48    0.41
  C2                   CONDUIT     0.045     0  12:08      1.13    0.05    0.20
  C9                   CONDUIT     0.037     0  21:43      0.87    0.13    0.27
  C16                  CONDUIT     0.167     0  21:28      1.27    0.02    0.09
  C3                   CONDUIT     0.190     0  21:04      2.09    0.07    0.17
  C19                  CONDUIT     0.073     0  11:54      0.89    0.03    0.17
  C11                  CONDUIT     0.262     0  22:04      1.81    0.01    0.10
  C20                  CONDUIT     0.188     0  08:42      1.68    0.01    0.08
  C22                  CONDUIT     0.055     0  08:47      0.87    0.02    0.20
  C12                  CONDUIT     0.142     0  18:41      1.14    0.01    0.29
  C17                  CONDUIT     0.285     0  21:23      2.01    0.01    0.29
  C10                  CONDUIT     0.200     0  21:42      1.09    0.02    0.55
  C13                  CONDUIT     0.472     0  21:21      1.02    0.03    0.75
  C18                  CONDUIT     0.122     0  08:37      1.01    0.00    0.37
  C23                  CONDUIT     0.497     0  21:23      0.87    0.05    0.58
  C4                   CONDUIT     0.094     0  08:42      1.13    0.02    0.55
  C7                   CONDUIT     0.062     0  11:12      0.95    0.02    0.54
  C14                  CONDUIT     0.271     0  10:34      2.08    0.02    0.09
  C5                   CONDUIT     0.031     0  11:01      1.04    0.53    0.57
  C8                   CONDUIT     0.038     0  21:37      1.14    0.48    0.44
  C15                  CONDUIT     0.182     0  21:21      2.41    0.58    0.48
  C21                  CONDUIT     0.058     0  08:42      1.42    0.33    0.31
  V4                   ORIFICE     0.045     0  12:06                      1.00
  V5                   ORIFICE     0.039     0  17:49                      1.00
  V1                   ORIFICE     0.271     0  10:33                      1.00
  V6                   ORIFICE     0.142     0  18:38                      1.00
  V3                   ORIFICE     0.190     0  21:02                      1.00
  V2                   ORIFICE     0.073     0  11:52                      1.00
  
  
  ***************************
  Flow Classification Summary
  ***************************
  
  -------------------------------------------------------------------------------------
                      Adjusted    ---------- Fraction of Time in Flow Class ---------- 
                       /Actual         Up    Down  Sub   Sup   Up    Down  Norm  Inlet 
  Conduit               Length    Dry  Dry   Dry   Crit  Crit  Crit  Crit  Ltd   Ctrl  
  -------------------------------------------------------------------------------------
  C1                      1.00   0.00  0.00  0.00  0.95  0.05  0.00  0.00  0.97  0.00
  C6                      1.00   0.00  0.00  0.00  0.01  0.99  0.00  0.00  0.00  0.00
  C2                      1.00   0.00  0.00  0.00  0.42  0.58  0.00  0.00  0.97  0.00
  C9                      1.00   0.00  0.00  0.00  1.00  0.00  0.00  0.00  1.00  0.00
  C16                     1.00   0.00  0.25  0.00  0.08  0.67  0.00  0.00  0.06  0.00
  C3                      1.00   0.00  0.00  0.00  0.03  0.97  0.00  0.00  0.04  0.00
  C19                     1.00   0.00  0.00  0.00  1.00  0.00  0.00  0.00  1.00  0.00
  C11                     1.00   0.00  0.00  0.00  0.04  0.96  0.00  0.00  1.00  0.00
  C20                     1.00   0.00  0.00  0.00  0.76  0.24  0.00  0.00  0.99  0.00
  C22                     1.00   0.00  0.00  0.00  1.00  0.00  0.00  0.00  1.00  0.00
  C12                     1.00   0.00  0.00  0.00  0.56  0.44  0.00  0.00  0.77  0.00
  C17                     1.00   0.00  0.00  0.00  0.57  0.43  0.00  0.00  0.99  0.00
  C10                     1.00   0.00  0.00  0.00  0.78  0.22  0.00  0.00  0.98  0.00
  C13                     1.00   0.00  0.00  0.00  0.77  0.23  0.00  0.00  0.61  0.00
  C18                     1.00   0.00  0.00  0.00  0.72  0.28  0.00  0.00  0.98  0.00
  C23                     1.00   0.00  0.00  0.00  0.80  0.20  0.00  0.00  0.96  0.00
  C4                      1.00   0.00  0.00  0.00  0.82  0.18  0.00  0.00  0.98  0.00
  C7                      1.00   0.00  0.00  0.00  0.77  0.23  0.00  0.00  0.83  0.00
  C14                     1.00   0.00  0.00  0.00  0.00  1.00  0.00  0.00  0.12  0.00
  C5                      1.00   0.00  0.00  0.00  0.90  0.10  0.00  0.00  0.99  0.00
  C8                      1.00   0.00  0.00  0.00  0.13  0.87  0.00  0.00  0.00  0.00
  C15                     1.00   0.25  0.00  0.00  0.00  0.75  0.00  0.00  0.00  0.00
  C21                     1.00   0.00  0.00  0.00  0.00  1.00  0.00  0.00  0.00  0.00
  
  
  *************************
  Conduit Surcharge Summary
  *************************
  
  ----------------------------------------------------------------------------
                                                           Hours        Hours 
                         --------- Hours Full --------   Above Full   Capacity
  Conduit                Both Ends  Upstream  Dnstream   Normal Flow   Limited
  ----------------------------------------------------------------------------
  C10                         0.01      0.01     13.59      0.01         0.01
  C13                         0.01      0.01     13.06      0.01         0.01
  C23                         0.01      0.01     14.98      0.01         0.01
  C4                          0.01      0.01     14.92      0.01         0.01
  C7                          0.01      0.01      7.17      0.01         0.01
  

  Analysis begun on:  Tue Sep 21 03:14:11 2021
  Analysis ended on:  Tue Sep 21 03:14:11 2021
  Total elapsed time: < 1 sec