
  EPA STORM WATER MANAGEMENT MODEL - VERSION 5.1 (Build 5.3.0.dev0)
  --------------------------------------------------------------

  WARNING 09: time series interval greater than recording interval for Rain Gage RG1
  WARNING 09: time series interval greater than recording interval for Rain Gage RG2
  WARNING 09: time series interval greater than recording interval for Rain Gage RG3
  WARNING 09: time series interval greater than recording interval for Rain Gage RG4
  
  *********************************************************
  NOTE: The summary statistics displayed in this report are
  based on results found at every computational time step,  
  not just on results from each reporting time step.
  *********************************************************
  
  ****************
  Analysis Options
  ****************
  Flow Units ............... CMS
  Process Models:
    Rainfall/Runoff ........ YES
    RDII ................... NO
    Snowmelt ............... NO
    Groundwater ............ NO
    Flow Routing ........... YES
    Ponding Allowed ........ YES
    Water Quality .......... NO
  Infiltration Method ...... HORTON
  Flow Routing Method ...... DYNWAVE
  Surcharge Method ......... EXTRAN
  Starting Date ............ 08/28/2015 00:00:00
  Ending Date .............. 08/28/2015 23:40:00
  Antecedent Dry Days ...... 0.0
  Report Time Step ......... 00:01:00
  Wet Time Step ............ 00:01:00
  Dry Time Step ............ 00:01:00
  Routing Time Step ........ 5.00 sec
  Variable Time Step ....... YES
  Maximum Trials ........... 8
  Number of Threads ........ 1
  Head Tolerance ........... 0.001500 m
  
  
  **************************        Volume         Depth
  Runoff Quantity Continuity     hectare-m            mm
  **************************     ---------       -------
  Total Precipitation ......         3.649        20.248
  Evaporation Loss .........         0.000         0.000
  Infiltration Loss ........         0.000         0.000
  Surface Runoff ...........         3.625        20.116
  Final Storage ............         0.026         0.142
  Continuity Error (%) .....        -0.053
  
  
  **************************        Volume        Volume
  Flow Routing Continuity        hectare-m      10^6 ltr
  **************************     ---------     ---------
  Dry Weather Inflow .......         0.758         7.576
  Wet Weather Inflow .......         3.625        36.249
  Groundwater Inflow .......         0.000         0.000
  RDII Inflow ..............         0.000         0.000
  External Inflow ..........         0.000         0.000
  External Outflow .........         1.867        18.671
  Flooding Loss ............         2.091        20.915
  Evaporation Loss .........         0.000         0.000
  Exfiltration Loss ........         0.000         0.000
  Initial Stored Volume ....         0.000         0.000
  Final Stored Volume ......         0.350         3.497
  Continuity Error (%) .....         1.692
  
  
  *************************
  Highest Continuity Errors
  *************************
  Node T5 (5.62%)
  Node T3 (4.33%)
  Node T1 (2.06%)
  
  
  ***************************
  Time-Step Critical Elements
  ***************************
  None
  
  
  ********************************
  Highest Flow Instability Indexes
  ********************************
  Link C15 (2)
  Link C20 (1)
  
  
  *************************
  Routing Time Step Summary
  *************************
  Minimum Time Step           :     4.50 sec
  Average Time Step           :     5.00 sec
  Maximum Time Step           :     5.00 sec
  Percent in Steady State     :     0.00
  Average Iterations per Step :     2.11
  Percent Not Converging      :     0.56
  
  
  ***************************
  Subcatchment Runoff Summary
  ***************************
  
  ------------------------------------------------------------------------------------------------------------------------------
                            Total      Total      Total      Total     Imperv       Perv      Total       Total     Peak  Runoff
                           Precip      Runon       Evap      Infil     Runoff     Runoff     Runoff      Runoff   Runoff   Coeff
  Subcatchment                 mm         mm         mm         mm         mm         mm         mm    10^6 ltr      CMS
  ------------------------------------------------------------------------------------------------------------------------------
  SC01                      18.89       0.00       0.00       0.00      18.80       0.00      18.80        6.21     0.39   0.995
  SC02                      18.29       0.00       0.00       0.00      18.21       0.00      18.21        4.14     0.41   0.996
  SC03                      23.02       0.00       0.00       0.00      22.92       0.00      22.92        4.13     0.26   0.996
  SC04                      18.29       0.00       0.00       0.00      18.15       0.00      18.15        1.25     0.10   0.992
  SC05                      18.89       0.00       0.00       0.00      18.80       0.00      18.80        2.93     0.18   0.995
  SC06                      20.80       0.00       0.00       0.00      20.62       0.00      20.62        6.71     0.43   0.991
  SC07                      18.29       0.00       0.00       0.00      18.15       0.00      18.15        0.86     0.07   0.992
  SC08                      23.02       0.00       0.00       0.00      22.81       0.00      22.81        6.39     0.33   0.991
  SC09                      20.80       0.00       0.00       0.00      20.67       0.00      20.67        1.43     0.11   0.994
  SC010                     18.89       0.00       0.00       0.00      18.78       0.00      18.78        2.21     0.13   0.994
  
  
  ******************
  Node Depth Summary
  ******************
  
  ---------------------------------------------------------------------------------
                                 Average  Maximum  Maximum  Time of Max    Reported
                                   Depth    Depth      HGL   Occurrence   Max Depth
  Node                 Type       Meters   Meters   Meters  days hr:min      Meters
  ---------------------------------------------------------------------------------
  J1                   JUNCTION     0.07     0.14    34.14     0  09:57        0.14
  J3                   JUNCTION     0.13     0.17    18.17     0  11:03        0.17
  CSO7                 JUNCTION     0.10     1.20    35.20     0  09:36        1.20
  J5                   JUNCTION     0.06     0.14    32.14     0  09:42        0.14
  CSO9                 JUNCTION     0.11     1.85    41.85     0  11:11        1.81
  J8                   JUNCTION     0.10     0.24    36.24     0  11:17        0.24
  CSO8                 JUNCTION     0.14     0.43    32.43     0  07:31        0.43
  J10                  JUNCTION     0.10     0.22    29.22     0  07:33        0.22
  J13                  JUNCTION     0.06     0.17    29.17     0  09:36        0.17
  J15                  JUNCTION     0.19     0.32    15.32     0  10:03        0.32
  J16                  JUNCTION     0.06     0.15    30.15     0  09:57        0.15
  CSO10                JUNCTION     0.11     0.30    30.30     0  09:56        0.30
  J12                  JUNCTION     0.52     1.03    27.03     0  09:23        1.03
  J4                   JUNCTION     0.11     1.47    34.47     0  09:36        0.77
  J6                   JUNCTION     0.07     0.12    25.12     0  11:01        0.12
  J2                   JUNCTION     0.06     0.08    25.08     0  09:12        0.08
  J19                  JUNCTION     0.15     0.17     8.17     0  07:04        0.17
  J9                   JUNCTION     0.11     0.16    29.16     0  09:46        0.16
  J14                  JUNCTION     0.15     0.19    20.19     0  16:50        0.19
  J17                  JUNCTION     0.09     0.15    20.15     0  10:53        0.15
  J7                   JUNCTION     0.08     0.21    39.21     0  11:17        0.21
  J11                  JUNCTION     0.10     0.24    31.24     0  07:33        0.24
  J18                  JUNCTION     0.05     0.13    29.13     0  10:03        0.13
  Out_to_WWTP          OUTFALL      0.15     0.17     6.17     0  21:22        0.17
  T5                   STORAGE      3.18     5.00    32.00     0  08:24        5.00
  T4                   STORAGE      1.42     4.76    31.76     0  11:00        4.76
  T6                   STORAGE      2.20     5.00    36.00     0  08:33        5.00
  T3                   STORAGE      3.33     5.00    27.00     0  09:21        5.00
  T2                   STORAGE      1.35     4.46    25.46     0  10:52        4.46
  T1                   STORAGE      3.86     5.00    15.00     0  07:03        5.00
  
  
  *******************
  Node Inflow Summary
  *******************
  
  -------------------------------------------------------------------------------------------------
                                  Maximum  Maximum                  Lateral       Total        Flow
                                  Lateral    Total  Time of Max      Inflow      Inflow     Balance
                                   Inflow   Inflow   Occurrence      Volume      Volume       Error
  Node                 Type           CMS      CMS  days hr:min    10^6 ltr    10^6 ltr     Percent
  -------------------------------------------------------------------------------------------------
  J1                   JUNCTION     0.195    0.195     0  09:56        4.03        4.03      -0.029
  J3                   JUNCTION     0.000    0.307     0  11:01           0        17.2       0.209
  CSO7                 JUNCTION     0.078    0.078     0  09:36        1.43        1.43       0.010
  J5                   JUNCTION     0.103    0.171     0  09:41         1.5        2.93      -0.005
  CSO9                 JUNCTION     0.115    0.115     0  11:11        1.81        1.81      -0.003
  J8                   JUNCTION     0.473    0.571     0  11:16        8.54        10.3      -0.003
  CSO8                 JUNCTION     0.341    0.341     0  07:31        6.83        6.83       0.005
  J10                  JUNCTION     0.267    0.536     0  07:31        4.88        11.7      -0.023
  J13                  JUNCTION     0.423    0.423     0  09:31        5.05        5.05      -0.087
  J15                  JUNCTION     0.000    0.902     0  09:57           0          32       0.231
  J16                  JUNCTION     0.404    0.404     0  09:56        7.28        7.28      -0.024
  CSO10                JUNCTION     0.130    0.130     0  09:56        2.48        2.48       0.005
  J12                  JUNCTION     0.000    0.663     0  09:32           0          20       0.076
  J4                   JUNCTION     0.000    0.078     0  09:36           0        1.43       0.054
  J6                   JUNCTION     0.000    0.078     0  11:00           0        2.92       0.013
  J2                   JUNCTION     0.000    0.039     0  08:24           0        2.44       0.179
  J19                  JUNCTION     0.000    0.271     0  07:03           0        18.7       0.062
  J9                   JUNCTION     0.000    0.175     0  08:33           0        8.25      -0.025
  J14                  JUNCTION     0.000    0.190     0  09:21           0        11.9       0.072
  J17                  JUNCTION     0.000    0.132     0  10:52           0        5.05       0.017
  J7                   JUNCTION     0.000    0.115     0  11:11           0        1.81       0.060
  J11                  JUNCTION     0.000    0.330     0  07:32           0        6.83       0.068
  J18                  JUNCTION     0.000    0.124     0  09:57           0        2.48      -0.012
  Out_to_WWTP          OUTFALL      0.000    0.271     0  07:05           0        18.7       0.000
  T5                   STORAGE      0.000    0.182     0  09:57           0        4.03       5.953
  T4                   STORAGE      0.000    0.165     0  09:42           0        2.93       0.008
  T6                   STORAGE      0.000    0.549     0  11:17           0        10.3       0.022
  T3                   STORAGE      0.000    0.813     0  09:26           0        19.9       4.529
  T2                   STORAGE      0.000    0.393     0  09:36           0        5.06       0.091
  T1                   STORAGE      0.000    0.876     0  10:03           0        31.9       2.108
  
  
  **********************
  Node Surcharge Summary
  **********************
  
  Surcharging occurs when water rises above the top of the highest conduit.
  ---------------------------------------------------------------------
                                               Max. Height   Min. Depth
                                   Hours       Above Crown    Below Rim
  Node                 Type      Surcharged         Meters       Meters
  ---------------------------------------------------------------------
  CSO7                 JUNCTION        0.38          0.945        0.000
  CSO9                 JUNCTION        0.47          1.527        0.155
  J4                   JUNCTION        0.36          1.174        0.526
  
  
  *********************
  Node Flooding Summary
  *********************
  
  Flooding refers to all water that overflows a node, whether it ponds or not.
  --------------------------------------------------------------------------
                                                             Total   Maximum
                                 Maximum   Time of Max       Flood    Ponded
                        Hours       Rate    Occurrence      Volume     Depth
  Node                 Flooded       CMS   days hr:min    10^6 ltr    Meters
  --------------------------------------------------------------------------
  CSO7                    0.07     0.009      0  09:36       0.001     0.000
  T5                      5.77     0.143      0  09:57       1.146     0.000
  T6                      4.67     0.374      0  11:17       2.094     0.000
  T3                      6.96     0.623      0  09:26       5.640     0.000
  T1                     13.99     0.605      0  10:03      12.035     0.000
  
  
  **********************
  Storage Volume Summary
  **********************
  
  --------------------------------------------------------------------------------------------------
                         Average     Avg  Evap Exfil       Maximum     Max    Time of Max    Maximum
                          Volume    Pcnt  Pcnt  Pcnt        Volume    Pcnt     Occurrence    Outflow
  Storage Unit           1000 m3    Full  Loss  Loss       1000 m3    Full    days hr:min        CMS
  --------------------------------------------------------------------------------------------------
  T5                       0.318      64     0     0         0.500     100       0  08:24      0.039
  T4                       0.142      28     0     0         0.476      95       0  11:00      0.078
  T6                       0.264      44     0     0         0.600     100       0  08:33      0.175
  T3                       1.733      67     0     0         2.600     100       0  09:21      0.190
  T2                       0.271      27     0     0         0.892      89       0  10:52      0.132
  T1                       0.540      77     0     0         0.700     100       0  07:03      0.271
  
  
  ***********************
  Outfall Loading Summary
  ***********************
  
  -----------------------------------------------------------
                         Flow       Avg       Max       Total
                         Freq      Flow      Flow      Volume
  Outfall Node           Pcnt       CMS       CMS    10^6 ltr
  -----------------------------------------------------------
  Out_to_WWTP           99.43     0.220     0.271      18.671
  -----------------------------------------------------------
  System                99.43     0.220     0.271      18.671
  
  
  ********************
  Link Flow Summary
  ********************
  
  -----------------------------------------------------------------------------
                                 Maximum  Time of Max   Maximum    Max/    Max/
                                  |Flow|   Occurrence   |Veloc|    Full    Full
  Link                 Type          CMS  days hr:min     m/sec    Flow   Depth
  -----------------------------------------------------------------------------
  C1                   CONDUIT     0.039     0  09:12      0.74    0.01    0.12
  C6                   CONDUIT     0.070     0  09:42      1.28    1.12    0.73
  C2                   CONDUIT     0.078     0  11:01      1.46    0.09    0.24
  C9                   CONDUIT     0.104     0  11:17      1.22    0.35    0.45
  C16                  CONDUIT     0.304     0  07:33      1.53    0.03    0.11
  C3                   CONDUIT     0.190     0  09:44      2.08    0.07    0.18
  C19                  CONDUIT     0.132     0  10:53      1.14    0.05    0.23
  C11                  CONDUIT     0.307     0  11:03      1.87    0.02    0.12
  C20                  CONDUIT     0.372     0  09:57      1.86    0.01    0.12
  C22                  CONDUIT     0.117     0  10:03      1.04    0.05    0.28
  C12                  CONDUIT     0.175     0  09:46      1.12    0.01    0.30
  C17                  CONDUIT     0.511     0  07:33      2.39    0.03    0.31
  C10                  CONDUIT     0.549     0  11:17      1.02    0.06    0.58
  C13                  CONDUIT     0.813     0  09:26      0.98    0.05    0.76
  C18                  CONDUIT     0.393     0  09:36      1.01    0.01    0.54
  C23                  CONDUIT     0.876     0  10:03      0.93    0.10    0.61
  C4                   CONDUIT     0.182     0  09:57      1.13    0.04    0.57
  C7                   CONDUIT     0.165     0  09:42      0.89    0.04    0.57
  C14                  CONDUIT     0.271     0  07:05      2.08    0.02    0.09
  C5                   CONDUIT     0.078     0  09:36      1.51    1.33    1.00
  C8                   CONDUIT     0.115     0  11:11      1.72    1.45    0.82
  C15                  CONDUIT     0.330     0  07:32      2.73    1.05    0.73
  C21                  CONDUIT     0.124     0  09:57      1.72    0.71    0.48
  V4                   ORIFICE     0.078     0  11:00                      1.00
  V5                   ORIFICE     0.039     0  08:24                      1.00
  V1                   ORIFICE     0.271     0  07:03                      1.00
  V6                   ORIFICE     0.175     0  08:33                      1.00
  V3                   ORIFICE     0.190     0  09:21                      1.00
  V2                   ORIFICE     0.132     0  10:52                      1.00
  
  
  ***************************
  Flow Classification Summary
  ***************************
  
  -------------------------------------------------------------------------------------
                      Adjusted    ---------- Fraction of Time in Flow Class ---------- 
                       /Actual         Up    Down  Sub   Sup   Up    Down  Norm  Inlet 
  Conduit               Length    Dry  Dry   Dry   Crit  Crit  Crit  Crit  Ltd   Ctrl  
  -------------------------------------------------------------------------------------
  C1                      1.00   0.00  0.00  0.00  0.93  0.07  0.00  0.00  0.97  0.00
  C6                      1.00   0.00  0.00  0.00  0.04  0.96  0.00  0.00  0.00  0.00
  C2                      1.00   0.00  0.00  0.00  0.32  0.68  0.00  0.00  0.97  0.00
  C9                      1.00   0.00  0.00  0.00  1.00  0.00  0.00  0.00  1.00  0.00
  C16                     1.00   0.00  0.06  0.00  0.32  0.62  0.00  0.00  0.26  0.00
  C3                      1.00   0.00  0.00  0.00  0.04  0.96  0.00  0.00  0.07  0.00
  C19                     1.00   0.00  0.00  0.00  1.00  0.00  0.00  0.00  1.00  0.00
  C11                     1.00   0.00  0.00  0.00  0.08  0.91  0.00  0.00  1.00  0.00
  C20                     1.00   0.00  0.00  0.00  0.63  0.37  0.00  0.00  0.99  0.00
  C22                     1.00   0.00  0.00  0.00  1.00  0.00  0.00  0.00  1.00  0.00
  C12                     1.00   0.00  0.00  0.00  0.91  0.09  0.00  0.00  0.99  0.00
  C17                     1.00   0.00  0.00  0.00  0.65  0.35  0.00  0.00  0.99  0.00
  C10                     1.00   0.00  0.00  0.00  0.83  0.17  0.00  0.00  0.98  0.00
  C13                     1.00   0.00  0.00  0.00  0.86  0.14  0.00  0.00  0.35  0.00
  C18                     1.00   0.00  0.00  0.00  0.81  0.19  0.00  0.00  0.98  0.00
  C23                     1.00   0.00  0.00  0.00  0.89  0.11  0.00  0.00  0.96  0.00
  C4                      1.00   0.00  0.00  0.00  0.90  0.10  0.00  0.00  0.98  0.00
  C7                      1.00   0.00  0.00  0.00  0.81  0.19  0.00  0.00  0.91  0.00
  C14                     1.00   0.00  0.00  0.00  0.00  1.00  0.00  0.00  0.09  0.00
  C5                      1.00   0.00  0.00  0.00  0.90  0.10  0.00  0.00  0.97  0.00
  C8                      1.00   0.00  0.00  0.00  0.18  0.82  0.00  0.00  0.00  0.00
  C15                     1.00   0.06  0.00  0.00  0.00  0.94  0.00  0.00  0.01  0.00
  C21                     1.00   0.00  0.00  0.00  0.00  1.00  0.00  0.00  0.00  0.00
  
  
  *************************
  Conduit Surcharge Summary
  *************************
  
  ----------------------------------------------------------------------------
                                                           Hours        Hours 
                         --------- Hours Full --------   Above Full   Capacity
  Conduit                Both Ends  Upstream  Dnstream   Normal Flow   Limited
  ----------------------------------------------------------------------------
  C6                          0.01      0.36      0.01      0.21         0.01
  C10                         0.01      0.01     11.44      0.01         0.01
  C13                         0.01      0.01     16.62      0.01         0.01
  C18                         0.01      0.01      7.27      0.01         0.01
  C23                         0.01      0.01     19.17      0.01         0.01
  C4                          0.01      0.01     18.95      0.01         0.01
  C7                          0.01      0.01     10.22      0.01         0.01
  C5                          0.37      0.38      0.57      0.54         0.34
  C8                          0.01      0.47      0.01      0.47         0.01
  C15                         0.01      0.01      0.01      0.05         0.01
  

  Analysis begun on:  Tue Sep 21 03:29:54 2021
  Analysis ended on:  Tue Sep 21 03:29:54 2021
  Total elapsed time: < 1 sec