
  EPA STORM WATER MANAGEMENT MODEL - VERSION 5.1 (Build 5.3.0.dev0)
  --------------------------------------------------------------

  WARNING 09: time series interval greater than recording interval for Rain Gage RG1
  WARNING 09: time series interval greater than recording interval for Rain Gage RG2
  WARNING 09: time series interval greater than recording interval for Rain Gage RG3
  WARNING 09: time series interval greater than recording interval for Rain Gage RG4
  
  *********************************************************
  NOTE: The summary statistics displayed in this report are
  based on results found at every computational time step,  
  not just on results from each reporting time step.
  *********************************************************
  
  ****************
  Analysis Options
  ****************
  Flow Units ............... CMS
  Process Models:
    Rainfall/Runoff ........ YES
    RDII ................... NO
    Snowmelt ............... NO
    Groundwater ............ NO
    Flow Routing ........... YES
    Ponding Allowed ........ YES
    Water Quality .......... NO
  Infiltration Method ...... HORTON
  Flow Routing Method ...... DYNWAVE
  Surcharge Method ......... EXTRAN
  Starting Date ............ 08/28/2015 00:00:00
  Ending Date .............. 08/28/2015 23:40:00
  Antecedent Dry Days ...... 0.0
  Report Time Step ......... 00:01:00
  Wet Time Step ............ 00:01:00
  Dry Time Step ............ 00:01:00
  Routing Time Step ........ 5.00 sec
  Variable Time Step ....... YES
  Maximum Trials ........... 8
  Number of Threads ........ 1
  Head Tolerance ........... 0.001500 m
  
  
  **************************        Volume         Depth
  Runoff Quantity Continuity     hectare-m            mm
  **************************     ---------       -------
  Total Precipitation ......         2.353        13.059
  Evaporation Loss .........         0.000         0.000
  Infiltration Loss ........         0.000         0.000
  Surface Runoff ...........         2.282        12.665
  Final Storage ............         0.083         0.462
  Continuity Error (%) .....        -0.523
  
  
  **************************        Volume        Volume
  Flow Routing Continuity        hectare-m      10^6 ltr
  **************************     ---------     ---------
  Dry Weather Inflow .......         0.758         7.576
  Wet Weather Inflow .......         2.282        22.817
  Groundwater Inflow .......         0.000         0.000
  RDII Inflow ..............         0.000         0.000
  External Inflow ..........         0.000         0.000
  External Outflow .........         1.082        10.819
  Flooding Loss ............         0.933         9.326
  Evaporation Loss .........         0.000         0.000
  Exfiltration Loss ........         0.000         0.000
  Initial Stored Volume ....         0.000         0.000
  Final Stored Volume ......         0.762         7.624
  Continuity Error (%) .....         8.631
  
  
  *************************
  Highest Continuity Errors
  *************************
  Node T2 (17.34%)
  Node T5 (15.03%)
  Node T3 (14.40%)
  Node T4 (13.54%)
  Node T6 (10.89%)
  
  
  ***************************
  Time-Step Critical Elements
  ***************************
  None
  
  
  ********************************
  Highest Flow Instability Indexes
  ********************************
  All links are stable.
  
  
  *************************
  Routing Time Step Summary
  *************************
  Minimum Time Step           :     0.09 sec
  Average Time Step           :     5.00 sec
  Maximum Time Step           :     5.00 sec
  Percent in Steady State     :     0.00
  Average Iterations per Step :     2.12
  Percent Not Converging      :     0.61
  
  
  ***************************
  Subcatchment Runoff Summary
  ***************************
  
  ------------------------------------------------------------------------------------------------------------------------------
                            Total      Total      Total      Total     Imperv       Perv      Total       Total     Peak  Runoff
                           Precip      Runon       Evap      Infil     Runoff     Runoff     Runoff      Runoff   Runoff   Coeff
  Subcatchment                 mm         mm         mm         mm         mm         mm         mm    10^6 ltr      CMS
  ------------------------------------------------------------------------------------------------------------------------------
  SC01                      13.18       0.00       0.00       0.00      12.96       0.00      12.96        4.28     4.83   0.983
  SC02                      17.17       0.00       0.00       0.00      17.02       0.00      17.02        3.87     4.41   0.991
  SC03                       9.18       0.00       0.00       0.00       9.07       0.00       9.07        1.63     1.68   0.988
  SC04                      17.17       0.00       0.00       0.00      16.47       0.00      16.47        1.14     0.72   0.959
  SC05                      13.18       0.00       0.00       0.00      12.92       0.00      12.92        2.02     2.11   0.980
  SC06                      13.81       0.00       0.00       0.00      12.94       0.00      12.94        4.21     1.92   0.937
  SC07                      17.17       0.00       0.00       0.00      16.47       0.00      16.47        0.78     0.50   0.960
  SC08                       9.18       0.00       0.00       0.00       8.82       0.00       8.82        2.47     1.30   0.961
  SC09                      13.81       0.00       0.00       0.00      13.35       0.00      13.35        0.92     0.60   0.967
  SC010                     13.18       0.00       0.00       0.00      12.80       0.00      12.80        1.50     1.29   0.971
  
  
  ******************
  Node Depth Summary
  ******************
  
  ---------------------------------------------------------------------------------
                                 Average  Maximum  Maximum  Time of Max    Reported
                                   Depth    Depth      HGL   Occurrence   Max Depth
  Node                 Type       Meters   Meters   Meters  days hr:min      Meters
  ---------------------------------------------------------------------------------
  J1                   JUNCTION     0.05     0.48    34.48     0  21:31        0.47
  J3                   JUNCTION     0.09     0.17    18.17     0  23:05        0.17
  CSO7                 JUNCTION     0.11     1.20    35.20     0  21:20        1.20
  J5                   JUNCTION     0.05     0.29    32.29     0  21:26        0.29
  CSO9                 JUNCTION     0.12     2.00    42.00     0  21:20        2.00
  J8                   JUNCTION     0.08     0.45    36.45     0  21:27        0.44
  CSO8                 JUNCTION     0.10     2.00    34.00     0  21:15        2.00
  J10                  JUNCTION     0.06     0.38    29.38     0  21:17        0.38
  J13                  JUNCTION     0.05     0.62    29.62     0  21:21        0.52
  J15                  JUNCTION     0.14     0.64    15.64     0  21:33        0.64
  J16                  JUNCTION     0.05     0.53    30.53     0  21:31        0.50
  CSO10                JUNCTION     0.09     1.00    31.00     0  21:26        1.00
  J12                  JUNCTION     0.10     0.41    26.41     0  23:36        0.41
  J4                   JUNCTION     0.11     1.02    34.02     0  21:27        0.78
  J6                   JUNCTION     0.05     0.12    25.12     0  22:46        0.12
  J2                   JUNCTION     0.05     0.08    25.08     0  22:32        0.08
  J19                  JUNCTION     0.12     0.17     8.17     0  21:38        0.17
  J9                   JUNCTION     0.08     0.16    29.16     0  22:46        0.16
  J14                  JUNCTION     0.10     0.18    20.18     0  23:40        0.18
  J17                  JUNCTION     0.06     0.15    20.15     0  22:14        0.15
  J7                   JUNCTION     0.06     0.23    39.23     0  21:51        0.23
  J11                  JUNCTION     0.05     0.30    31.30     0  21:34        0.30
  J18                  JUNCTION     0.04     0.16    29.16     0  21:54        0.16
  Out_to_WWTP          OUTFALL      0.12     0.17     6.17     0  21:38        0.17
  T5                   STORAGE      1.11     5.00    32.00     0  21:40        5.00
  T4                   STORAGE      0.54     5.00    32.00     0  22:15        5.00
  T6                   STORAGE      0.67     5.00    36.00     0  21:38        5.00
  T3                   STORAGE      0.69     4.42    26.42     0  23:40        4.42
  T2                   STORAGE      0.54     5.00    26.00     0  21:35        5.00
  T1                   STORAGE      1.30     5.00    15.00     0  21:37        5.00
  
  
  *******************
  Node Inflow Summary
  *******************
  
  -------------------------------------------------------------------------------------------------
                                  Maximum  Maximum                  Lateral       Total        Flow
                                  Lateral    Total  Time of Max      Inflow      Inflow     Balance
                                   Inflow   Inflow   Occurrence      Volume      Volume       Error
  Node                 Type           CMS      CMS  days hr:min    10^6 ltr    10^6 ltr     Percent
  -------------------------------------------------------------------------------------------------
  J1                   JUNCTION     2.120    2.120     0  21:31        3.11        3.11      -0.032
  J3                   JUNCTION     0.000    0.295     0  23:04           0        8.05       0.663
  CSO7                 JUNCTION     0.501    0.501     0  21:26        1.35        1.35       0.026
  J5                   JUNCTION     0.720    0.787     0  21:26        1.38        2.38       0.015
  CSO9                 JUNCTION     0.608    0.608     0  21:26         1.3         1.3      -0.023
  J8                   JUNCTION     1.939    2.039     0  21:26        6.04        7.01      -0.015
  CSO8                 JUNCTION     1.299    1.299     0  21:21        2.92        2.92      -0.062
  J10                  JUNCTION     1.691    1.814     0  21:16        2.38        4.88      -0.000
  J13                  JUNCTION     4.418    4.418     0  21:21        4.78        4.78      -0.530
  J15                  JUNCTION     0.000    5.158     0  21:31           0        16.9       0.875
  J16                  JUNCTION     4.840    4.840     0  21:31        5.35        5.35      -0.161
  CSO10                JUNCTION     1.292    1.292     0  21:31        1.77        1.77      -0.019
  J12                  JUNCTION     0.000    1.549     0  21:22           0        8.88       2.602
  J4                   JUNCTION     0.000    0.085     0  21:25           0           1       0.264
  J6                   JUNCTION     0.000    0.080     0  22:16           0        1.52       0.527
  J2                   JUNCTION     0.000    0.039     0  21:40           0        1.44       0.387
  J19                  JUNCTION     0.000    0.271     0  21:37           0        10.8       0.117
  J9                   JUNCTION     0.000    0.175     0  21:38           0        4.04       0.864
  J14                  JUNCTION     0.000    0.178     0  23:40           0        5.11       0.185
  J17                  JUNCTION     0.000    0.140     0  21:35           0        2.28       0.689
  J7                   JUNCTION     0.000    0.127     0  21:51           0       0.972       0.523
  J11                  JUNCTION     0.000    0.486     0  21:33           0        2.51       0.606
  J18                  JUNCTION     0.000    0.202     0  21:54           0        1.27       0.200
  Out_to_WWTP          OUTFALL      0.000    0.271     0  21:38           0        10.8       0.000
  T5                   STORAGE      0.000    1.946     0  21:31           0        3.11      17.686
  T4                   STORAGE      0.000    0.738     0  21:26           0        2.38      15.654
  T6                   STORAGE      0.000    1.872     0  21:27           0        7.01      12.215
  T3                   STORAGE      0.000    1.407     0  21:23           0        8.66      16.822
  T2                   STORAGE      0.000    4.780     0  21:21           0        4.81      20.983
  T1                   STORAGE      0.000    3.403     0  21:33           0        16.7       5.015
  
  
  **********************
  Node Surcharge Summary
  **********************
  
  Surcharging occurs when water rises above the top of the highest conduit.
  ---------------------------------------------------------------------
                                               Max. Height   Min. Depth
                                   Hours       Above Crown    Below Rim
  Node                 Type      Surcharged         Meters       Meters
  ---------------------------------------------------------------------
  CSO7                 JUNCTION        1.14          0.945        0.000
  CSO9                 JUNCTION        0.82          1.682        0.000
  CSO8                 JUNCTION        0.63          1.547        0.000
  CSO10                JUNCTION        0.63          0.560        0.000
  J4                   JUNCTION        1.05          0.721        0.979
  
  
  *********************
  Node Flooding Summary
  *********************
  
  Flooding refers to all water that overflows a node, whether it ponds or not.
  --------------------------------------------------------------------------
                                                             Total   Maximum
                                 Maximum   Time of Max       Flood    Ponded
                        Hours       Rate    Occurrence      Volume     Depth
  Node                 Flooded       CMS   days hr:min    10^6 ltr    Meters
  --------------------------------------------------------------------------
  CSO7                    0.94     0.417      0  21:26       0.344     0.000
  CSO9                    0.52     0.480      0  21:26       0.331     0.000
  CSO8                    0.31     0.811      0  21:21       0.410     0.000
  CSO10                   0.53     1.082      0  21:31       0.506     0.000
  T5                      1.46     0.650      0  21:40       0.715     0.000
  T4                      0.59     0.096      0  22:17       0.102     0.000
  T6                      1.35     1.195      0  21:38       1.668     0.000
  T2                      1.08     0.827      0  21:35       0.838     0.000
  T1                      2.05     2.613      0  21:37       4.413     0.000
  
  
  **********************
  Storage Volume Summary
  **********************
  
  --------------------------------------------------------------------------------------------------
                         Average     Avg  Evap Exfil       Maximum     Max    Time of Max    Maximum
                          Volume    Pcnt  Pcnt  Pcnt        Volume    Pcnt     Occurrence    Outflow
  Storage Unit           1000 m3    Full  Loss  Loss       1000 m3    Full    days hr:min        CMS
  --------------------------------------------------------------------------------------------------
  T5                       0.111      22     0     0         0.500     100       0  21:40      0.039
  T4                       0.054      11     0     0         0.500     100       0  22:15      0.080
  T6                       0.080      13     0     0         0.600     100       0  21:38      0.175
  T3                       0.359      14     0     0         2.296      88       0  23:40      0.178
  T2                       0.108      11     0     0         1.000     100       0  21:35      0.140
  T1                       0.182      26     0     0         0.700     100       0  21:37      0.271
  
  
  ***********************
  Outfall Loading Summary
  ***********************
  
  -----------------------------------------------------------
                         Flow       Avg       Max       Total
                         Freq      Flow      Flow      Volume
  Outfall Node           Pcnt       CMS       CMS    10^6 ltr
  -----------------------------------------------------------
  Out_to_WWTP           99.65     0.127     0.271      10.819
  -----------------------------------------------------------
  System                99.65     0.127     0.271      10.819
  
  
  ********************
  Link Flow Summary
  ********************
  
  -----------------------------------------------------------------------------
                                 Maximum  Time of Max   Maximum    Max/    Max/
                                  |Flow|   Occurrence   |Veloc|    Full    Full
  Link                 Type          CMS  days hr:min     m/sec    Flow   Depth
  -----------------------------------------------------------------------------
  C1                   CONDUIT     0.039     0  22:32      1.07    0.01    0.12
  C6                   CONDUIT     0.076     0  21:29      1.28    1.20    0.97
  C2                   CONDUIT     0.080     0  22:46      1.55    0.09    0.24
  C9                   CONDUIT     0.127     0  21:51      1.21    0.43    0.67
  C16                  CONDUIT     0.485     0  21:28      1.80    0.05    0.16
  C3                   CONDUIT     0.178     0  23:32      1.95    0.07    0.17
  C19                  CONDUIT     0.140     0  22:12      1.41    0.05    0.39
  C11                  CONDUIT     0.295     0  23:05      1.78    0.01    0.19
  C20                  CONDUIT     4.692     0  21:31      7.28    0.15    0.27
  C22                  CONDUIT     0.202     0  21:54      1.41    0.09    0.50
  C12                  CONDUIT     0.175     0  22:46      1.17    0.01    0.14
  C17                  CONDUIT     1.523     0  21:22      4.39    0.08    0.19
  C10                  CONDUIT     1.872     0  21:27      3.64    0.19    0.65
  C13                  CONDUIT     1.407     0  21:23      2.35    0.08    0.60
  C18                  CONDUIT     4.780     0  21:21      6.89    0.18    0.62
  C23                  CONDUIT     3.403     0  21:33      2.53    0.38    0.71
  C4                   CONDUIT     1.946     0  21:31      3.12    0.47    0.74
  C7                   CONDUIT     0.738     0  21:26      3.76    0.18    0.64
  C14                  CONDUIT     0.271     0  21:38      2.08    0.02    0.09
  C5                   CONDUIT     0.085     0  21:25      1.92    1.46    1.00
  C8                   CONDUIT     0.127     0  21:51      2.15    1.60    0.86
  C15                  CONDUIT     0.486     0  21:33      3.89    1.55    0.83
  C21                  CONDUIT     0.202     0  21:54      2.06    1.16    0.69
  V4                   ORIFICE     0.080     0  22:16                      1.00
  V5                   ORIFICE     0.039     0  21:40                      1.00
  V1                   ORIFICE     0.271     0  21:37                      1.00
  V6                   ORIFICE     0.175     0  21:38                      1.00
  V3                   ORIFICE     0.178     0  23:40                      1.00
  V2                   ORIFICE     0.140     0  21:35                      1.00
  
  
  ***************************
  Flow Classification Summary
  ***************************
  
  -------------------------------------------------------------------------------------
                      Adjusted    ---------- Fraction of Time in Flow Class ---------- 
                       /Actual         Up    Down  Sub   Sup   Up    Down  Norm  Inlet 
  Conduit               Length    Dry  Dry   Dry   Crit  Crit  Crit  Crit  Ltd   Ctrl  
  -------------------------------------------------------------------------------------
  C1                      1.00   0.00  0.00  0.00  0.96  0.04  0.00  0.00  0.98  0.00
  C6                      1.00   0.00  0.00  0.00  0.07  0.93  0.00  0.00  0.01  0.00
  C2                      1.00   0.00  0.00  0.00  0.46  0.54  0.00  0.00  0.99  0.00
  C9                      1.00   0.00  0.00  0.00  1.00  0.00  0.00  0.00  1.00  0.00
  C16                     1.00   0.00  0.00  0.00  0.89  0.11  0.00  0.00  0.68  0.00
  C3                      1.00   0.00  0.00  0.00  0.01  0.99  0.00  0.00  0.03  0.00
  C19                     1.00   0.00  0.00  0.00  0.97  0.03  0.00  0.00  1.00  0.00
  C11                     1.00   0.00  0.00  0.00  0.08  0.92  0.00  0.00  1.00  0.00
  C20                     1.00   0.00  0.00  0.00  0.91  0.09  0.00  0.00  0.99  0.00
  C22                     1.00   0.00  0.00  0.00  0.97  0.03  0.00  0.00  1.00  0.00
  C12                     1.00   0.00  0.00  0.00  0.12  0.88  0.00  0.00  0.87  0.00
  C17                     1.00   0.00  0.00  0.00  0.54  0.46  0.00  0.00  0.98  0.00
  C10                     1.00   0.00  0.00  0.00  0.96  0.04  0.00  0.00  0.99  0.00
  C13                     1.00   0.00  0.00  0.00  0.96  0.04  0.00  0.00  0.93  0.00
  C18                     1.00   0.00  0.00  0.00  0.51  0.49  0.00  0.00  0.99  0.00
  C23                     1.00   0.00  0.00  0.00  0.98  0.02  0.00  0.00  0.98  0.00
  C4                      1.00   0.00  0.00  0.00  0.99  0.01  0.00  0.00  0.99  0.00
  C7                      1.00   0.00  0.00  0.00  0.87  0.13  0.00  0.00  0.98  0.00
  C14                     1.00   0.00  0.00  0.00  0.00  1.00  0.00  0.00  0.68  0.00
  C5                      1.00   0.00  0.00  0.00  0.95  0.05  0.00  0.00  0.94  0.00
  C8                      1.00   0.00  0.00  0.00  0.12  0.88  0.00  0.00  0.00  0.00
  C15                     1.00   0.00  0.00  0.00  0.04  0.96  0.00  0.00  0.03  0.00
  C21                     1.00   0.00  0.00  0.00  0.00  1.00  0.00  0.00  0.00  0.00
  
  
  *************************
  Conduit Surcharge Summary
  *************************
  
  ----------------------------------------------------------------------------
                                                           Hours        Hours 
                         --------- Hours Full --------   Above Full   Capacity
  Conduit                Both Ends  Upstream  Dnstream   Normal Flow   Limited
  ----------------------------------------------------------------------------
  C6                          0.01      1.05      0.01      0.96         0.01
  C10                         0.01      0.01      2.21      0.01         0.01
  C13                         0.01      0.01      1.97      0.01         0.01
  C18                         0.01      0.01      2.24      0.01         0.01
  C23                         0.01      0.01      2.14      0.01         0.01
  C4                          0.01      0.01      5.81      0.01         0.01
  C7                          0.01      0.01      2.22      0.01         0.01
  C5                          1.06      1.14      1.16      1.12         1.02
  C8                          0.01      0.82      0.01      0.82         0.01
  C15                         0.01      0.63      0.01      0.77         0.01
  C21                         0.01      0.63      0.01      0.60         0.01
  

  Analysis begun on:  Tue Sep 21 03:51:34 2021
  Analysis ended on:  Tue Sep 21 03:51:35 2021
  Total elapsed time: 00:00:01