
  EPA STORM WATER MANAGEMENT MODEL - VERSION 5.1 (Build 5.3.0.dev0)
  --------------------------------------------------------------

  WARNING 09: time series interval greater than recording interval for Rain Gage RG1
  WARNING 09: time series interval greater than recording interval for Rain Gage RG2
  WARNING 09: time series interval greater than recording interval for Rain Gage RG3
  WARNING 09: time series interval greater than recording interval for Rain Gage RG4
  
  *********************************************************
  NOTE: The summary statistics displayed in this report are
  based on results found at every computational time step,  
  not just on results from each reporting time step.
  *********************************************************
  
  ****************
  Analysis Options
  ****************
  Flow Units ............... CMS
  Process Models:
    Rainfall/Runoff ........ YES
    RDII ................... NO
    Snowmelt ............... NO
    Groundwater ............ NO
    Flow Routing ........... YES
    Ponding Allowed ........ YES
    Water Quality .......... NO
  Infiltration Method ...... HORTON
  Flow Routing Method ...... DYNWAVE
  Surcharge Method ......... EXTRAN
  Starting Date ............ 08/28/2015 00:00:00
  Ending Date .............. 08/28/2015 23:40:00
  Antecedent Dry Days ...... 0.0
  Report Time Step ......... 00:01:00
  Wet Time Step ............ 00:01:00
  Dry Time Step ............ 00:01:00
  Routing Time Step ........ 5.00 sec
  Variable Time Step ....... YES
  Maximum Trials ........... 8
  Number of Threads ........ 1
  Head Tolerance ........... 0.001500 m
  
  
  **************************        Volume         Depth
  Runoff Quantity Continuity     hectare-m            mm
  **************************     ---------       -------
  Total Precipitation ......         2.684        14.897
  Evaporation Loss .........         0.000         0.000
  Infiltration Loss ........         0.000         0.000
  Surface Runoff ...........         2.461        13.655
  Final Storage ............         0.231         1.283
  Continuity Error (%) .....        -0.276
  
  
  **************************        Volume        Volume
  Flow Routing Continuity        hectare-m      10^6 ltr
  **************************     ---------     ---------
  Dry Weather Inflow .......         0.758         7.576
  Wet Weather Inflow .......         2.457        24.566
  Groundwater Inflow .......         0.000         0.000
  RDII Inflow ..............         0.000         0.000
  External Inflow ..........         0.000         0.000
  External Outflow .........         0.940         9.399
  Flooding Loss ............         1.137        11.373
  Evaporation Loss .........         0.000         0.000
  Exfiltration Loss ........         0.000         0.000
  Initial Stored Volume ....         0.000         0.000
  Final Stored Volume ......         0.861         8.614
  Continuity Error (%) .....         8.573
  
  
  *************************
  Highest Continuity Errors
  *************************
  Node T2 (20.66%)
  Node T5 (17.64%)
  Node T4 (13.30%)
  Node T3 (12.61%)
  Node T6 (9.08%)
  
  
  ***************************
  Time-Step Critical Elements
  ***************************
  None
  
  
  ********************************
  Highest Flow Instability Indexes
  ********************************
  All links are stable.
  
  
  *************************
  Routing Time Step Summary
  *************************
  Minimum Time Step           :     4.50 sec
  Average Time Step           :     5.00 sec
  Maximum Time Step           :     5.00 sec
  Percent in Steady State     :     0.00
  Average Iterations per Step :     2.27
  Percent Not Converging      :     0.32
  
  
  ***************************
  Subcatchment Runoff Summary
  ***************************
  
  ------------------------------------------------------------------------------------------------------------------------------
                            Total      Total      Total      Total     Imperv       Perv      Total       Total     Peak  Runoff
                           Precip      Runon       Evap      Infil     Runoff     Runoff     Runoff      Runoff   Runoff   Coeff
  Subcatchment                 mm         mm         mm         mm         mm         mm         mm    10^6 ltr      CMS
  ------------------------------------------------------------------------------------------------------------------------------
  SC01                      12.24       0.00       0.00       0.00      11.19       0.00      11.19        3.69     0.62   0.914
  SC02                      12.13       0.00       0.00       0.00      11.06       0.00      11.06        2.52     0.48   0.912
  SC03                      15.92       0.00       0.00       0.00      15.42       0.00      15.42        2.78     1.61   0.969
  SC04                      12.13       0.00       0.00       0.00      10.23       0.00      10.23        0.71     0.09   0.843
  SC05                      12.24       0.00       0.00       0.00      11.11       0.00      11.11        1.73     0.27   0.908
  SC06                      20.18       0.00       0.00       0.00      18.25       0.00      18.25        5.94     0.80   0.904
  SC07                      12.13       0.00       0.00       0.00      10.23       0.00      10.23        0.49     0.06   0.843
  SC08                      15.92       0.00       0.00       0.00      14.90       0.00      14.90        4.17     1.33   0.936
  SC09                      20.18       0.00       0.00       0.00      18.93       0.00      18.93        1.31     0.20   0.938
  SC010                     12.24       0.00       0.00       0.00      10.89       0.00      10.89        1.28     0.17   0.889
  
  
  ******************
  Node Depth Summary
  ******************
  
  ---------------------------------------------------------------------------------
                                 Average  Maximum  Maximum  Time of Max    Reported
                                   Depth    Depth      HGL   Occurrence   Max Depth
  Node                 Type       Meters   Meters   Meters  days hr:min      Meters
  ---------------------------------------------------------------------------------
  J1                   JUNCTION     0.05     0.17    34.17     0  20:07        0.17
  J3                   JUNCTION     0.09     0.17    18.17     0  23:40        0.17
  CSO7                 JUNCTION     0.07     0.22    34.22     0  22:52        0.22
  J5                   JUNCTION     0.05     0.13    32.13     0  22:57        0.13
  CSO9                 JUNCTION     0.19     2.00    42.00     0  19:55        2.00
  J8                   JUNCTION     0.09     0.31    36.31     0  20:57        0.31
  CSO8                 JUNCTION     0.12     2.00    34.00     0  19:36        2.00
  J10                  JUNCTION     0.07     0.40    29.40     0  19:42        0.39
  J13                  JUNCTION     0.04     0.18    29.18     0  20:01        0.18
  J15                  JUNCTION     0.13     0.33    15.33     0  23:03        0.33
  J16                  JUNCTION     0.05     0.19    30.19     0  20:07        0.19
  CSO10                JUNCTION     0.08     0.37    30.37     0  20:07        0.37
  J12                  JUNCTION     0.15     1.06    27.06     0  22:23        1.06
  J4                   JUNCTION     0.09     0.24    33.24     0  22:58        0.24
  J6                   JUNCTION     0.05     0.11    25.11     0  23:40        0.11
  J2                   JUNCTION     0.05     0.08    25.08     0  22:55        0.08
  J19                  JUNCTION     0.10     0.17     8.17     0  20:42        0.17
  J9                   JUNCTION     0.08     0.16    29.16     0  21:50        0.16
  J14                  JUNCTION     0.10     0.19    20.19     0  22:18        0.19
  J17                  JUNCTION     0.05     0.14    20.14     0  23:40        0.14
  J7                   JUNCTION     0.07     0.23    39.23     0  21:23        0.23
  J11                  JUNCTION     0.06     0.30    31.30     0  19:57        0.30
  J18                  JUNCTION     0.04     0.14    29.14     0  20:12        0.14
  Out_to_WWTP          OUTFALL      0.10     0.17     6.17     0  20:41        0.17
  T5                   STORAGE      1.07     5.00    32.00     0  22:06        5.00
  T4                   STORAGE      0.40     3.55    30.55     0  23:40        3.55
  T6                   STORAGE      0.86     5.00    36.00     0  20:47        5.00
  T3                   STORAGE      0.90     5.00    27.00     0  22:17        5.00
  T2                   STORAGE      0.38     3.61    24.61     0  23:40        3.61
  T1                   STORAGE      1.28     5.00    15.00     0  20:41        5.00
  
  
  *******************
  Node Inflow Summary
  *******************
  
  -------------------------------------------------------------------------------------------------
                                  Maximum  Maximum                  Lateral       Total        Flow
                                  Lateral    Total  Time of Max      Inflow      Inflow     Balance
                                   Inflow   Inflow   Occurrence      Volume      Volume       Error
  Node                 Type           CMS      CMS  days hr:min    10^6 ltr    10^6 ltr     Percent
  -------------------------------------------------------------------------------------------------
  J1                   JUNCTION     0.287    0.287     0  20:06        2.82        2.82       0.358
  J3                   JUNCTION     0.000    0.296     0  23:40           0        7.69       0.667
  CSO7                 JUNCTION     0.063    0.063     0  22:51        1.05        1.05       0.157
  J5                   JUNCTION     0.089    0.142     0  22:56       0.952        1.99       0.480
  CSO9                 JUNCTION     0.205    0.205     0  20:56        1.69        1.69       0.069
  J8                   JUNCTION     0.820    0.943     0  20:56        7.77        9.37       0.330
  CSO8                 JUNCTION     1.329    1.329     0  19:41        4.62        4.62       0.022
  J10                  JUNCTION     1.624    1.992     0  19:41        3.52        7.73       0.367
  J13                  JUNCTION     0.491    0.491     0  20:01        3.42        3.42       0.202
  J15                  JUNCTION     0.000    1.012     0  23:02           0        15.9       1.334
  J16                  JUNCTION     0.635    0.635     0  20:06        4.76        4.76       0.380
  CSO10                JUNCTION     0.174    0.174     0  20:06        1.55        1.55       0.276
  J12                  JUNCTION     0.000    1.683     0  19:42           0        11.8       7.550
  J4                   JUNCTION     0.000    0.060     0  22:52           0        1.05       1.083
  J6                   JUNCTION     0.000    0.067     0  23:40           0        1.36       0.568
  J2                   JUNCTION     0.000    0.039     0  22:06           0        1.27       0.469
  J19                  JUNCTION     0.000    0.271     0  20:41           0        9.41       0.134
  J9                   JUNCTION     0.000    0.175     0  20:47           0        4.17       0.785
  J14                  JUNCTION     0.000    0.190     0  22:18           0        5.08       0.196
  J17                  JUNCTION     0.000    0.119     0  23:40           0        1.99       0.750
  J7                   JUNCTION     0.000    0.127     0  21:22           0        1.62       0.755
  J11                  JUNCTION     0.000    0.486     0  19:57           0        4.24       0.950
  J18                  JUNCTION     0.000    0.163     0  20:07           0        1.54       0.989
  Out_to_WWTP          OUTFALL      0.000    0.271     0  20:43           0         9.4       0.000
  T5                   STORAGE      0.000    0.261     0  20:07           0        2.81      21.418
  T4                   STORAGE      0.000    0.138     0  22:57           0        1.98      15.338
  T6                   STORAGE      0.000    0.886     0  20:57           0        9.34       9.981
  T3                   STORAGE      0.000    1.379     0  19:45           0          11      14.433
  T2                   STORAGE      0.000    0.453     0  20:01           0        3.41      26.044
  T1                   STORAGE      0.000    0.964     0  23:03           0        15.7       5.575
  
  
  **********************
  Node Surcharge Summary
  **********************
  
  Surcharging occurs when water rises above the top of the highest conduit.
  ---------------------------------------------------------------------
                                               Max. Height   Min. Depth
                                   Hours       Above Crown    Below Rim
  Node                 Type      Surcharged         Meters       Meters
  ---------------------------------------------------------------------
  CSO9                 JUNCTION        2.45          1.682        0.000
  CSO8                 JUNCTION        0.91          1.547        0.000
  
  
  *********************
  Node Flooding Summary
  *********************
  
  Flooding refers to all water that overflows a node, whether it ponds or not.
  --------------------------------------------------------------------------
                                                             Total   Maximum
                                 Maximum   Time of Max       Flood    Ponded
                        Hours       Rate    Occurrence      Volume     Depth
  Node                 Flooded       CMS   days hr:min    10^6 ltr    Meters
  --------------------------------------------------------------------------
  CSO9                    0.80     0.078      0  20:56       0.064     0.000
  CSO8                    0.31     0.851      0  19:41       0.371     0.000
  T5                      1.56     0.180      0  23:02       0.544     0.000
  T6                      2.87     0.711      0  20:57       3.726     0.000
  T3                      1.33     0.838      0  22:26       1.935     0.000
  T1                      2.98     0.694      0  23:04       4.734     0.000
  
  
  **********************
  Storage Volume Summary
  **********************
  
  --------------------------------------------------------------------------------------------------
                         Average     Avg  Evap Exfil       Maximum     Max    Time of Max    Maximum
                          Volume    Pcnt  Pcnt  Pcnt        Volume    Pcnt     Occurrence    Outflow
  Storage Unit           1000 m3    Full  Loss  Loss       1000 m3    Full    days hr:min        CMS
  --------------------------------------------------------------------------------------------------
  T5                       0.107      21     0     0         0.500     100       0  22:06      0.039
  T4                       0.040       8     0     0         0.355      71       0  23:40      0.067
  T6                       0.104      17     0     0         0.600     100       0  20:47      0.175
  T3                       0.468      18     0     0         2.600     100       0  22:17      0.190
  T2                       0.076       8     0     0         0.723      72       0  23:40      0.119
  T1                       0.179      26     0     0         0.700     100       0  20:41      0.271
  
  
  ***********************
  Outfall Loading Summary
  ***********************
  
  -----------------------------------------------------------
                         Flow       Avg       Max       Total
                         Freq      Flow      Flow      Volume
  Outfall Node           Pcnt       CMS       CMS    10^6 ltr
  -----------------------------------------------------------
  Out_to_WWTP           99.43     0.111     0.271       9.399
  -----------------------------------------------------------
  System                99.43     0.111     0.271       9.399
  
  
  ********************
  Link Flow Summary
  ********************
  
  -----------------------------------------------------------------------------
                                 Maximum  Time of Max   Maximum    Max/    Max/
                                  |Flow|   Occurrence   |Veloc|    Full    Full
  Link                 Type          CMS  days hr:min     m/sec    Flow   Depth
  -----------------------------------------------------------------------------
  C1                   CONDUIT     0.039     0  22:55      0.73    0.01    0.12
  C6                   CONDUIT     0.056     0  22:58      1.25    0.89    0.61
  C2                   CONDUIT     0.067     0  23:40      1.33    0.08    0.23
  C9                   CONDUIT     0.127     0  21:23      1.34    0.43    0.53
  C16                  CONDUIT     0.485     0  19:53      1.80    0.05    0.17
  C3                   CONDUIT     0.190     0  22:19      2.04    0.07    0.18
  C19                  CONDUIT     0.119     0  23:40      0.95    0.04    0.23
  C11                  CONDUIT     0.296     0  23:40      1.54    0.01    0.12
  C20                  CONDUIT     0.574     0  20:07      2.90    0.02    0.12
  C22                  CONDUIT     0.152     0  20:13      1.35    0.07    0.29
  C12                  CONDUIT     0.175     0  21:50      1.24    0.01    0.31
  C17                  CONDUIT     1.652     0  19:42      4.22    0.08    0.32
  C10                  CONDUIT     0.886     0  20:57      1.48    0.09    0.60
  C13                  CONDUIT     1.379     0  19:45      2.11    0.08    0.76
  C18                  CONDUIT     0.453     0  20:01      2.55    0.02    0.54
  C23                  CONDUIT     0.964     0  23:03      0.86    0.11    0.61
  C4                   CONDUIT     0.261     0  20:07      1.13    0.06    0.59
  C7                   CONDUIT     0.138     0  22:57      1.12    0.03    0.56
  C14                  CONDUIT     0.271     0  20:43      2.08    0.02    0.09
  C5                   CONDUIT     0.060     0  22:52      1.35    1.03    0.88
  C8                   CONDUIT     0.127     0  21:22      1.86    1.60    0.86
  C15                  CONDUIT     0.486     0  19:57      4.24    1.55    0.83
  C21                  CONDUIT     0.163     0  20:07      1.80    0.93    0.58
  V4                   ORIFICE     0.067     0  23:40                      1.00
  V5                   ORIFICE     0.039     0  22:06                      1.00
  V1                   ORIFICE     0.271     0  20:41                      1.00
  V6                   ORIFICE     0.175     0  20:47                      1.00
  V3                   ORIFICE     0.190     0  22:18                      1.00
  V2                   ORIFICE     0.119     0  23:40                      1.00
  
  
  ***************************
  Flow Classification Summary
  ***************************
  
  -------------------------------------------------------------------------------------
                      Adjusted    ---------- Fraction of Time in Flow Class ---------- 
                       /Actual         Up    Down  Sub   Sup   Up    Down  Norm  Inlet 
  Conduit               Length    Dry  Dry   Dry   Crit  Crit  Crit  Crit  Ltd   Ctrl  
  -------------------------------------------------------------------------------------
  C1                      1.00   0.00  0.00  0.00  0.93  0.07  0.00  0.00  0.97  0.00
  C6                      1.00   0.00  0.00  0.00  0.01  0.99  0.00  0.00  0.00  0.00
  C2                      1.00   0.00  0.00  0.00  0.33  0.67  0.00  0.00  0.97  0.00
  C9                      1.00   0.00  0.00  0.00  1.00  0.00  0.00  0.00  1.00  0.00
  C16                     1.00   0.00  0.25  0.00  0.58  0.17  0.00  0.00  0.47  0.00
  C3                      1.00   0.00  0.00  0.00  0.04  0.96  0.00  0.00  0.07  0.00
  C19                     1.00   0.00  0.00  0.00  1.00  0.00  0.00  0.00  1.00  0.00
  C11                     1.00   0.00  0.00  0.00  0.06  0.94  0.00  0.00  1.00  0.00
  C20                     1.00   0.00  0.00  0.00  0.82  0.18  0.00  0.00  0.99  0.00
  C22                     1.00   0.00  0.00  0.00  0.99  0.01  0.00  0.00  1.00  0.00
  C12                     1.00   0.00  0.00  0.00  0.20  0.79  0.00  0.00  0.90  0.00
  C17                     1.00   0.00  0.00  0.00  0.54  0.46  0.00  0.00  0.99  0.00
  C10                     1.00   0.00  0.00  0.00  0.77  0.23  0.00  0.00  0.98  0.00
  C13                     1.00   0.00  0.00  0.00  0.76  0.24  0.00  0.00  0.84  0.00
  C18                     1.00   0.00  0.00  0.00  0.43  0.57  0.00  0.00  0.98  0.00
  C23                     1.00   0.00  0.00  0.00  0.80  0.20  0.00  0.00  0.96  0.00
  C4                      1.00   0.00  0.00  0.00  0.82  0.18  0.00  0.00  0.98  0.00
  C7                      1.00   0.00  0.00  0.00  0.73  0.27  0.00  0.00  0.83  0.00
  C14                     1.00   0.00  0.00  0.00  0.00  1.00  0.00  0.00  0.43  0.00
  C5                      1.00   0.00  0.00  0.00  0.95  0.05  0.00  0.00  0.98  0.00
  C8                      1.00   0.00  0.00  0.00  0.27  0.73  0.00  0.00  0.00  0.00
  C15                     1.00   0.25  0.01  0.00  0.03  0.70  0.00  0.00  0.04  0.00
  C21                     1.00   0.00  0.00  0.00  0.00  1.00  0.00  0.00  0.00  0.00
  
  
  *************************
  Conduit Surcharge Summary
  *************************
  
  ----------------------------------------------------------------------------
                                                           Hours        Hours 
                         --------- Hours Full --------   Above Full   Capacity
  Conduit                Both Ends  Upstream  Dnstream   Normal Flow   Limited
  ----------------------------------------------------------------------------
  C10                         0.01      0.01      3.53      0.01         0.01
  C13                         0.01      0.01      3.59      0.01         0.01
  C18                         0.01      0.01      1.78      0.01         0.01
  C23                         0.01      0.01      3.54      0.01         0.01
  C4                          0.01      0.01      5.77      0.01         0.01
  C7                          0.01      0.01      3.17      0.01         0.01
  C5                          0.01      0.01      0.01      0.05         0.01
  C8                          0.01      2.45      0.01      2.43         0.01
  C15                         0.01      0.91      0.01      1.21         0.01
  

  Analysis begun on:  Tue Sep 21 04:26:08 2021
  Analysis ended on:  Tue Sep 21 04:26:08 2021
  Total elapsed time: < 1 sec