
  EPA STORM WATER MANAGEMENT MODEL - VERSION 5.1 (Build 5.3.0.dev0)
  --------------------------------------------------------------

  WARNING 09: time series interval greater than recording interval for Rain Gage RG1
  WARNING 09: time series interval greater than recording interval for Rain Gage RG2
  WARNING 09: time series interval greater than recording interval for Rain Gage RG3
  WARNING 09: time series interval greater than recording interval for Rain Gage RG4
  
  *********************************************************
  NOTE: The summary statistics displayed in this report are
  based on results found at every computational time step,  
  not just on results from each reporting time step.
  *********************************************************
  
  ****************
  Analysis Options
  ****************
  Flow Units ............... CMS
  Process Models:
    Rainfall/Runoff ........ YES
    RDII ................... NO
    Snowmelt ............... NO
    Groundwater ............ NO
    Flow Routing ........... YES
    Ponding Allowed ........ YES
    Water Quality .......... NO
  Infiltration Method ...... HORTON
  Flow Routing Method ...... DYNWAVE
  Surcharge Method ......... EXTRAN
  Starting Date ............ 08/28/2015 00:00:00
  Ending Date .............. 08/28/2015 23:40:00
  Antecedent Dry Days ...... 0.0
  Report Time Step ......... 00:01:00
  Wet Time Step ............ 00:01:00
  Dry Time Step ............ 00:01:00
  Routing Time Step ........ 5.00 sec
  Variable Time Step ....... YES
  Maximum Trials ........... 8
  Number of Threads ........ 1
  Head Tolerance ........... 0.001500 m
  
  
  **************************        Volume         Depth
  Runoff Quantity Continuity     hectare-m            mm
  **************************     ---------       -------
  Total Precipitation ......         2.224        12.342
  Evaporation Loss .........         0.000         0.000
  Infiltration Loss ........         0.000         0.000
  Surface Runoff ...........         2.213        12.279
  Final Storage ............         0.015         0.085
  Continuity Error (%) .....        -0.177
  
  
  **************************        Volume        Volume
  Flow Routing Continuity        hectare-m      10^6 ltr
  **************************     ---------     ---------
  Dry Weather Inflow .......         0.758         7.576
  Wet Weather Inflow .......         2.213        22.127
  Groundwater Inflow .......         0.000         0.000
  RDII Inflow ..............         0.000         0.000
  External Inflow ..........         0.000         0.000
  External Outflow .........         1.612        16.118
  Flooding Loss ............         0.973         9.729
  Evaporation Loss .........         0.000         0.000
  Exfiltration Loss ........         0.000         0.000
  Initial Stored Volume ....         0.000         0.000
  Final Stored Volume ......         0.326         3.257
  Continuity Error (%) .....         2.018
  
  
  *************************
  Highest Continuity Errors
  *************************
  Node T5 (7.15%)
  Node T3 (5.94%)
  Node T1 (2.43%)
  
  
  ***************************
  Time-Step Critical Elements
  ***************************
  None
  
  
  ********************************
  Highest Flow Instability Indexes
  ********************************
  All links are stable.
  
  
  *************************
  Routing Time Step Summary
  *************************
  Minimum Time Step           :     2.15 sec
  Average Time Step           :     5.00 sec
  Maximum Time Step           :     5.00 sec
  Percent in Steady State     :     0.00
  Average Iterations per Step :     2.17
  Percent Not Converging      :     0.73
  
  
  ***************************
  Subcatchment Runoff Summary
  ***************************
  
  ------------------------------------------------------------------------------------------------------------------------------
                            Total      Total      Total      Total     Imperv       Perv      Total       Total     Peak  Runoff
                           Precip      Runon       Evap      Infil     Runoff     Runoff     Runoff      Runoff   Runoff   Coeff
  Subcatchment                 mm         mm         mm         mm         mm         mm         mm    10^6 ltr      CMS
  ------------------------------------------------------------------------------------------------------------------------------
  SC01                      12.27       0.00       0.00       0.00      12.23       0.00      12.23        4.04     0.94   0.997
  SC02                      15.02       0.00       0.00       0.00      14.99       0.00      14.99        3.41     0.66   0.998
  SC03                      12.03       0.00       0.00       0.00      12.02       0.00      12.02        2.16     0.83   0.999
  SC04                      15.02       0.00       0.00       0.00      14.92       0.00      14.92        1.03     0.11   0.994
  SC05                      12.27       0.00       0.00       0.00      12.22       0.00      12.22        1.91     0.41   0.996
  SC06                      10.48       0.00       0.00       0.00      10.35       0.00      10.35        3.37     0.37   0.988
  SC07                      15.02       0.00       0.00       0.00      14.92       0.00      14.92        0.71     0.07   0.994
  SC08                      12.03       0.00       0.00       0.00      11.97       0.00      11.97        3.35     0.67   0.995
  SC09                      10.48       0.00       0.00       0.00      10.40       0.00      10.40        0.72     0.11   0.992
  SC010                     12.27       0.00       0.00       0.00      12.21       0.00      12.21        1.43     0.24   0.995
  
  
  ******************
  Node Depth Summary
  ******************
  
  ---------------------------------------------------------------------------------
                                 Average  Maximum  Maximum  Time of Max    Reported
                                   Depth    Depth      HGL   Occurrence   Max Depth
  Node                 Type       Meters   Meters   Meters  days hr:min      Meters
  ---------------------------------------------------------------------------------
  J1                   JUNCTION     0.05     0.20    34.20     0  14:42        0.20
  J3                   JUNCTION     0.12     0.17    18.17     0  15:18        0.17
  CSO7                 JUNCTION     0.10     1.20    35.20     0  08:01        1.20
  J5                   JUNCTION     0.05     0.14    32.14     0  08:07        0.14
  CSO9                 JUNCTION     0.08     1.72    41.72     0  08:11        1.58
  J8                   JUNCTION     0.08     0.22    36.22     0  08:18        0.22
  CSO8                 JUNCTION     0.11     2.00    34.00     0  07:50        2.00
  J10                  JUNCTION     0.07     0.29    29.29     0  14:29        0.29
  J13                  JUNCTION     0.05     0.20    29.20     0  14:32        0.20
  J15                  JUNCTION     0.17     0.37    15.37     0  14:48        0.37
  J16                  JUNCTION     0.05     0.22    30.22     0  14:42        0.22
  CSO10                JUNCTION     0.09     1.00    31.00     0  08:06        1.00
  J12                  JUNCTION     0.35     1.06    27.06     0  14:36        1.06
  J4                   JUNCTION     0.11     1.24    34.24     0  11:31        0.78
  J6                   JUNCTION     0.07     0.11    25.11     0  12:07        0.11
  J2                   JUNCTION     0.06     0.08    25.08     0  12:21        0.08
  J19                  JUNCTION     0.13     0.17     8.17     0  08:24        0.17
  J9                   JUNCTION     0.10     0.16    29.16     0  12:15        0.16
  J14                  JUNCTION     0.13     0.19    20.19     0  14:33        0.19
  J17                  JUNCTION     0.08     0.13    20.13     0  11:54        0.13
  J7                   JUNCTION     0.06     0.20    39.20     0  08:18        0.20
  J11                  JUNCTION     0.06     0.29    31.29     0  14:32        0.29
  J18                  JUNCTION     0.04     0.16    29.16     0  14:46        0.16
  Out_to_WWTP          OUTFALL      0.13     0.17     6.17     0  21:19        0.17
  T5                   STORAGE      2.64     5.00    32.00     0  11:32        5.00
  T4                   STORAGE      1.11     3.18    30.18     0  12:05        3.18
  T6                   STORAGE      1.47     5.00    36.00     0  12:01        5.00
  T3                   STORAGE      2.73     5.00    27.00     0  14:32        5.00
  T2                   STORAGE      1.07     3.07    24.07     0  11:52        3.07
  T1                   STORAGE      3.31     5.00    15.00     0  08:22        5.00
  
  
  *******************
  Node Inflow Summary
  *******************
  
  -------------------------------------------------------------------------------------------------
                                  Maximum  Maximum                  Lateral       Total        Flow
                                  Lateral    Total  Time of Max      Inflow      Inflow     Balance
                                   Inflow   Inflow   Occurrence      Volume      Volume       Error
  Node                 Type           CMS      CMS  days hr:min    10^6 ltr    10^6 ltr     Percent
  -------------------------------------------------------------------------------------------------
  J1                   JUNCTION     0.425    0.425     0  14:41           3           3      -0.031
  J3                   JUNCTION     0.000    0.287     0  15:16           0        14.7       0.238
  CSO7                 JUNCTION     0.082    0.082     0  14:36        1.27        1.27       0.025
  J5                   JUNCTION     0.110    0.180     0  08:06        1.28        2.55      -0.041
  CSO9                 JUNCTION     0.111    0.111     0  08:16         1.1         1.1      -0.006
  J8                   JUNCTION     0.401    0.491     0  08:16         5.2         6.3      -0.024
  CSO8                 JUNCTION     0.677    0.677     0  14:26         3.8         3.8      -0.033
  J10                  JUNCTION     0.842    1.028     0  14:26        2.91        6.67      -0.132
  J13                  JUNCTION     0.679    0.679     0  14:31        4.32        4.32      -0.235
  J15                  JUNCTION     0.000    1.341     0  14:42           0        25.8       0.285
  J16                  JUNCTION     0.959    0.959     0  14:41        5.11        5.11      -0.074
  CSO10                JUNCTION     0.249    0.249     0  14:41        1.71        1.71      -0.057
  J12                  JUNCTION     0.000    1.041     0  14:29           0        13.1       0.009
  J4                   JUNCTION     0.000    0.082     0  14:36           0        1.27      -0.014
  J6                   JUNCTION     0.000    0.063     0  12:05           0        2.55       0.005
  J2                   JUNCTION     0.000    0.039     0  11:32           0        2.09       0.206
  J19                  JUNCTION     0.000    0.271     0  08:22           0        16.1       0.070
  J9                   JUNCTION     0.000    0.175     0  12:01           0        6.27      -0.023
  J14                  JUNCTION     0.000    0.190     0  14:32           0          10       0.082
  J17                  JUNCTION     0.000    0.110     0  11:52           0        4.32       0.008
  J7                   JUNCTION     0.000    0.111     0  08:16           0         1.1       0.091
  J11                  JUNCTION     0.000    0.485     0  14:31           0        3.76       0.073
  J18                  JUNCTION     0.000    0.202     0  14:46           0         1.7      -0.023
  Out_to_WWTP          OUTFALL      0.000    0.271     0  08:24           0        16.1       0.000
  T5                   STORAGE      0.000    0.374     0  14:42           0           3       7.704
  T4                   STORAGE      0.000    0.174     0  08:07           0        2.55       0.037
  T6                   STORAGE      0.000    0.470     0  08:18           0         6.3       0.039
  T3                   STORAGE      0.000    1.214     0  14:39           0        13.1       6.312
  T2                   STORAGE      0.000    0.586     0  14:32           0        4.33       0.230
  T1                   STORAGE      0.000    1.179     0  14:48           0        25.7       2.492
  
  
  **********************
  Node Surcharge Summary
  **********************
  
  Surcharging occurs when water rises above the top of the highest conduit.
  ---------------------------------------------------------------------
                                               Max. Height   Min. Depth
                                   Hours       Above Crown    Below Rim
  Node                 Type      Surcharged         Meters       Meters
  ---------------------------------------------------------------------
  CSO7                 JUNCTION        0.80          0.945        0.000
  CSO9                 JUNCTION        0.25          1.406        0.276
  CSO8                 JUNCTION        0.80          1.547        0.000
  CSO10                JUNCTION        0.33          0.560        0.000
  J4                   JUNCTION        0.67          0.936        0.764
  
  
  *********************
  Node Flooding Summary
  *********************
  
  Flooding refers to all water that overflows a node, whether it ponds or not.
  --------------------------------------------------------------------------
                                                             Total   Maximum
                                 Maximum   Time of Max       Flood    Ponded
                        Hours       Rate    Occurrence      Volume     Depth
  Node                 Flooded       CMS   days hr:min    10^6 ltr    Meters
  --------------------------------------------------------------------------
  CSO7                    0.16     0.013      0  14:31       0.002     0.000
  CSO8                    0.19     0.220      0  14:26       0.044     0.000
  CSO10                   0.08     0.078      0  14:41       0.006     0.000
  T5                      1.92     0.277      0  14:46       0.482     0.000
  T6                      0.22     0.053      0  12:01       0.020     0.000
  T3                      0.85     1.025      0  14:39       0.761     0.000
  T1                     12.62     0.909      0  14:48       8.414     0.000
  
  
  **********************
  Storage Volume Summary
  **********************
  
  --------------------------------------------------------------------------------------------------
                         Average     Avg  Evap Exfil       Maximum     Max    Time of Max    Maximum
                          Volume    Pcnt  Pcnt  Pcnt        Volume    Pcnt     Occurrence    Outflow
  Storage Unit           1000 m3    Full  Loss  Loss       1000 m3    Full    days hr:min        CMS
  --------------------------------------------------------------------------------------------------
  T5                       0.264      53     0     0         0.500     100       0  11:32      0.039
  T4                       0.111      22     0     0         0.318      64       0  12:05      0.063
  T6                       0.176      29     0     0         0.600     100       0  12:01      0.175
  T3                       1.420      55     0     0         2.600     100       0  14:32      0.319
  T2                       0.213      21     0     0         0.615      61       0  11:52      0.110
  T1                       0.463      66     0     0         0.700     100       0  08:22      0.271
  
  
  ***********************
  Outfall Loading Summary
  ***********************
  
  -----------------------------------------------------------
                         Flow       Avg       Max       Total
                         Freq      Flow      Flow      Volume
  Outfall Node           Pcnt       CMS       CMS    10^6 ltr
  -----------------------------------------------------------
  Out_to_WWTP           99.43     0.190     0.271      16.118
  -----------------------------------------------------------
  System                99.43     0.190     0.271      16.118
  
  
  ********************
  Link Flow Summary
  ********************
  
  -----------------------------------------------------------------------------
                                 Maximum  Time of Max   Maximum    Max/    Max/
                                  |Flow|   Occurrence   |Veloc|    Full    Full
  Link                 Type          CMS  days hr:min     m/sec    Flow   Depth
  -----------------------------------------------------------------------------
  C1                   CONDUIT     0.039     0  12:21      0.73    0.01    0.12
  C6                   CONDUIT     0.071     0  08:07      1.29    1.12    0.74
  C2                   CONDUIT     0.063     0  12:07      1.32    0.07    0.23
  C9                   CONDUIT     0.098     0  08:18      1.24    0.33    0.42
  C16                  CONDUIT     0.472     0  14:32      1.72    0.05    0.14
  C3                   CONDUIT     0.190     0  14:45      2.07    0.07    0.18
  C19                  CONDUIT     0.110     0  11:54      1.12    0.04    0.25
  C11                  CONDUIT     0.287     0  15:18      1.86    0.01    0.13
  C20                  CONDUIT     0.839     0  14:42      3.61    0.03    0.14
  C22                  CONDUIT     0.194     0  14:46      1.46    0.09    0.33
  C12                  CONDUIT     0.175     0  12:15      1.30    0.01    0.30
  C17                  CONDUIT     0.904     0  14:29      3.12    0.04    0.33
  C10                  CONDUIT     0.470     0  08:18      0.94    0.05    0.57
  C13                  CONDUIT     1.214     0  14:39      1.08    0.07    0.77
  C18                  CONDUIT     0.586     0  14:32      3.87    0.02    0.55
  C23                  CONDUIT     1.179     0  14:48      1.02    0.13    0.62
  C4                   CONDUIT     0.374     0  14:42      1.13    0.09    0.60
  C7                   CONDUIT     0.174     0  08:07      1.55    0.04    0.57
  C14                  CONDUIT     0.271     0  08:24      2.08    0.02    0.09
  C5                   CONDUIT     0.082     0  14:36      1.75    1.40    1.00
  C8                   CONDUIT     0.111     0  08:16      1.63    1.40    0.81
  C15                  CONDUIT     0.485     0  14:31      3.69    1.54    0.82
  C21                  CONDUIT     0.202     0  14:46      1.95    1.16    0.68
  V4                   ORIFICE     0.063     0  12:05                      1.00
  V5                   ORIFICE     0.039     0  11:32                      1.00
  V1                   ORIFICE     0.271     0  08:22                      1.00
  V6                   ORIFICE     0.175     0  12:01                      1.00
  V3                   ORIFICE     0.190     0  14:32                      1.00
  V2                   ORIFICE     0.110     0  11:52                      1.00
  
  
  ***************************
  Flow Classification Summary
  ***************************
  
  -------------------------------------------------------------------------------------
                      Adjusted    ---------- Fraction of Time in Flow Class ---------- 
                       /Actual         Up    Down  Sub   Sup   Up    Down  Norm  Inlet 
  Conduit               Length    Dry  Dry   Dry   Crit  Crit  Crit  Crit  Ltd   Ctrl  
  -------------------------------------------------------------------------------------
  C1                      1.00   0.00  0.00  0.00  0.93  0.07  0.00  0.00  0.97  0.00
  C6                      1.00   0.00  0.00  0.00  0.05  0.95  0.00  0.00  0.00  0.00
  C2                      1.00   0.00  0.00  0.00  0.34  0.66  0.00  0.00  0.97  0.00
  C9                      1.00   0.00  0.00  0.00  1.00  0.00  0.00  0.00  1.00  0.00
  C16                     1.00   0.00  0.25  0.00  0.36  0.39  0.00  0.00  0.29  0.00
  C3                      1.00   0.00  0.00  0.00  0.04  0.96  0.00  0.00  0.10  0.00
  C19                     1.00   0.00  0.00  0.00  0.94  0.06  0.00  0.00  1.00  0.00
  C11                     1.00   0.00  0.00  0.00  0.08  0.92  0.00  0.00  1.00  0.00
  C20                     1.00   0.00  0.00  0.00  0.82  0.18  0.00  0.00  0.99  0.00
  C22                     1.00   0.00  0.00  0.00  0.98  0.02  0.00  0.00  1.00  0.00
  C12                     1.00   0.00  0.00  0.00  0.56  0.44  0.00  0.00  0.87  0.00
  C17                     1.00   0.00  0.00  0.00  0.77  0.23  0.00  0.00  0.98  0.00
  C10                     1.00   0.00  0.00  0.00  0.73  0.27  0.00  0.00  0.98  0.00
  C13                     1.00   0.00  0.00  0.00  0.76  0.24  0.00  0.00  0.52  0.00
  C18                     1.00   0.00  0.00  0.00  0.67  0.33  0.00  0.00  0.98  0.00
  C23                     1.00   0.00  0.00  0.00  0.80  0.20  0.00  0.00  0.96  0.00
  C4                      1.00   0.00  0.00  0.00  0.82  0.18  0.00  0.00  0.98  0.00
  C7                      1.00   0.00  0.00  0.00  0.69  0.31  0.00  0.00  0.83  0.00
  C14                     1.00   0.00  0.00  0.00  0.00  1.00  0.00  0.00  0.09  0.00
  C5                      1.00   0.00  0.00  0.00  0.94  0.06  0.00  0.00  0.94  0.00
  C8                      1.00   0.00  0.00  0.00  0.25  0.75  0.00  0.00  0.01  0.00
  C15                     1.00   0.25  0.00  0.00  0.00  0.74  0.00  0.00  0.01  0.00
  C21                     1.00   0.00  0.00  0.00  0.01  0.99  0.00  0.00  0.00  0.00
  
  
  *************************
  Conduit Surcharge Summary
  *************************
  
  ----------------------------------------------------------------------------
                                                           Hours        Hours 
                         --------- Hours Full --------   Above Full   Capacity
  Conduit                Both Ends  Upstream  Dnstream   Normal Flow   Limited
  ----------------------------------------------------------------------------
  C6                          0.01      0.67      0.01      0.36         0.01
  C10                         0.01      0.01      9.47      0.01         0.01
  C13                         0.01      0.01     15.25      0.01         0.01
  C18                         0.01      0.01      6.20      0.01         0.01
  C23                         0.01      0.01     15.76      0.01         0.01
  C4                          0.01      0.01     15.66      0.01         0.01
  C7                          0.01      0.01     10.50      0.01         0.01
  C5                          0.69      0.80      0.99      0.83         0.61
  C8                          0.01      0.25      0.01      0.25         0.01
  C15                         0.01      0.80      0.01      0.85         0.01
  C21                         0.01      0.33      0.01      0.30         0.01
  

  Analysis begun on:  Tue Sep 21 04:31:53 2021
  Analysis ended on:  Tue Sep 21 04:31:54 2021
  Total elapsed time: 00:00:01