
  EPA STORM WATER MANAGEMENT MODEL - VERSION 5.1 (Build 5.3.0.dev0)
  --------------------------------------------------------------

  WARNING 04: minimum elevation drop used for Conduit WS02004404WS02004405
  WARNING 03: negative offset ignored for Link YS02001904YS02001907
  
  *********************************************************
  NOTE: The summary statistics displayed in this report are
  based on results found at every computational time step,  
  not just on results from each reporting time step.
  *********************************************************
  
  ****************
  Analysis Options
  ****************
  Flow Units ............... LPS
  Process Models:
    Rainfall/Runoff ........ YES
    RDII ................... NO
    Snowmelt ............... NO
    Groundwater ............ NO
    Flow Routing ........... YES
    Ponding Allowed ........ NO
    Water Quality .......... YES
  Infiltration Method ...... HORTON
  Flow Routing Method ...... DYNWAVE
  Surcharge Method ......... EXTRAN
  Starting Date ............ 08/28/2015 08:00:00
  Ending Date .............. 08/28/2015 15:50:00
  Antecedent Dry Days ...... 8.0
  Report Time Step ......... 00:01:00
  Wet Time Step ............ 00:01:00
  Dry Time Step ............ 00:01:00
  Routing Time Step ........ 5.00 sec
  Variable Time Step ....... YES
  Maximum Trials ........... 8
  Number of Threads ........ 4
  Head Tolerance ........... 0.001500 m
  
  
  **************************        Volume         Depth
  Runoff Quantity Continuity     hectare-m            mm
  **************************     ---------       -------
  Total Precipitation ......         6.144        13.452
  Evaporation Loss .........         0.000         0.000
  Infiltration Loss ........         1.064         2.328
  Surface Runoff ...........         4.147         9.079
  Final Storage ............         0.935         2.047
  Continuity Error (%) .....        -0.020
  
  
  **************************           COD            SS            TN            TP         NH4-N
  Runoff Quality Continuity             kg            kg            kg            kg            kg
  **************************    ----------    ----------    ----------    ----------    ----------
  Initial Buildup ..........     41378.656     70582.865      1804.177       168.684      1032.807
  Surface Buildup ..........        21.799        40.924         2.400         0.218         1.395
  Wet Deposition ...........         0.000         0.000         0.000         0.000         0.000
  Sweeping Removal .........         0.000         0.000         0.000         0.000         0.000
  Infiltration Loss ........        97.311       184.943         1.849         0.130         0.881
  BMP Removal ..............         0.000         0.000         0.000         0.000         0.000
  Surface Runoff ...........      3769.819      7064.251        72.781         4.964        34.599
  Remaining Buildup ........     37531.916     63371.884      1731.919       163.806       998.709
  Continuity Error (%) .....         0.003         0.004         0.002         0.001         0.001
  
  
  **************************        Volume        Volume
  Flow Routing Continuity        hectare-m      10^6 ltr
  **************************     ---------     ---------
  Dry Weather Inflow .......         0.616         6.165
  Wet Weather Inflow .......         4.145        41.451
  Groundwater Inflow .......         0.000         0.000
  RDII Inflow ..............         0.000         0.000
  External Inflow ..........         0.102         1.024
  External Outflow .........         2.246        22.460
  Flooding Loss ............         2.255        22.553
  Evaporation Loss .........         0.000         0.000
  Exfiltration Loss ........         0.000         0.000
  Initial Stored Volume ....         0.076         0.761
  Final Stored Volume ......         0.653         6.534
  Continuity Error (%) .....        -4.345
  
  
  **************************           COD            SS            TN            TP         NH4-N
  Quality Routing Continuity            kg            kg            kg            kg            kg
  **************************    ----------    ----------    ----------    ----------    ----------
  Dry Weather Inflow .......      1541.201      2465.922       147.955        18.494        92.472
  Wet Weather Inflow .......      3768.918      7062.684        72.762         4.963        34.590
  Groundwater Inflow .......         0.000         0.000         0.000         0.000         0.000
  RDII Inflow ..............         0.000         0.000         0.000         0.000         0.000
  External Inflow ..........       183.418       293.469        17.608         2.201        11.005
  External Outflow .........      2530.765      4408.116       151.541        17.617        91.149
  Flooding Loss ............      2173.540      4053.291        56.486         4.980        29.789
  Exfiltration Loss ........         0.000         0.000         0.000         0.000         0.000
  Mass Reacted .............         0.000         0.000         0.000         0.000         0.000
  Initial Stored Mass ......         0.000         0.000         0.000         0.000         0.000
  Final Stored Mass ........       551.608       958.519        24.117         2.558        13.935
  Continuity Error (%) .....         4.326         4.094         2.593         1.963         2.314
  
  
  *************************
  Highest Continuity Errors
  *************************
  Node JK-storage (-19.82%)
  Node HS02004842 (13.41%)
  Node YS02001884 (11.62%)
  Node HS02004817 (2.53%)
  Node YSB1171 (2.46%)
  
  
  ***************************
  Time-Step Critical Elements
  ***************************
  Link WS02006252WS02006251 (57.78%)
  Link WS02006280WS02006229 (9.10%)
  Link YS02001793JiankangQianchi (7.58%)
  Link WS02004404WS02004405 (6.04%)
  Link WS02006238WS02006235 (4.03%)
  
  
  ********************************
  Highest Flow Instability Indexes
  ********************************
  Link WS02006238WS02006235 (44)
  Link YS02163601YS02164001 (34)
  Link YS02001619YS02001622 (33)
  Link YS02001629YS02163301 (33)
  Link YS02163301YS02001633 (32)
  
  
  *************************
  Routing Time Step Summary
  *************************
  Minimum Time Step           :     0.50 sec
  Average Time Step           :     1.17 sec
  Maximum Time Step           :     5.00 sec
  Percent in Steady State     :    -0.00
  Average Iterations per Step :     4.57
  Percent Not Converging      :    23.35
  
  
  ***************************
  Subcatchment Runoff Summary
  ***************************
  
  ------------------------------------------------------------------------------------------------------------------------------
                            Total      Total      Total      Total     Imperv       Perv      Total       Total     Peak  Runoff
                           Precip      Runon       Evap      Infil     Runoff     Runoff     Runoff      Runoff   Runoff   Coeff
  Subcatchment                 mm         mm         mm         mm         mm         mm         mm    10^6 ltr      LPS
  ------------------------------------------------------------------------------------------------------------------------------
  sub0                      13.45       0.00       0.00       0.63      12.47       0.31      12.77        0.01     3.75   0.950
  sub1                      13.45       0.00       0.00       1.12      11.88       0.36      12.24        0.08    25.66   0.910
  sub2                      13.45       0.00       0.00       4.44       8.39       0.53       8.92        0.08    25.29   0.663
  sub3                      13.45       0.00       0.00       4.56       8.35       0.42       8.77        0.20    55.75   0.652
  sub4                      13.45       0.00       0.00       1.22      11.71       0.26      11.97        0.25    65.52   0.890
  sub5                      13.45       0.00       0.00       0.68      12.41       0.26      12.67        0.14    44.76   0.942
  sub7                      13.45       0.00       0.00       0.86      12.18       0.35      12.53        0.04    14.26   0.931
  sub8                      13.45       0.00       0.00       0.87      12.17       0.34      12.50        0.08    26.26   0.930
  sub9                      13.45       0.00       0.00       0.88      12.17       0.33      12.50        0.06    19.64   0.929
  sub10                     13.45       0.00       0.00       0.78      12.29       0.29      12.58        0.14    44.00   0.935
  sub11                     13.45       0.00       0.00       0.77      12.30       0.31      12.61        0.15    48.45   0.938
  sub12                     13.45       0.00       0.00       1.25      11.66       0.50      12.16        0.11    38.10   0.904
  sub14                     13.45       0.00       0.00       0.88      12.16       0.33      12.49        0.12    38.67   0.929
  sub15                     13.45       0.00       0.00       3.37       9.35       0.66      10.01        0.17    57.01   0.744
  sub16                     13.45       0.00       0.00       3.56       8.97       0.88       9.85        0.10    37.63   0.732
  sub17                     13.45       0.00       0.00       3.47       9.10       0.84       9.94        0.09    30.67   0.739
  sub22                     13.45       0.00       0.00       4.98       7.63       0.81       8.43        0.53   184.54   0.627
  sub23                     13.45       0.00       0.00       4.17       8.43       0.81       9.24        0.44   154.22   0.687
  sub60                     13.45       0.00       0.00       1.53       9.85       0.09       9.93        3.01   438.14   0.738
  sub61                     13.45       0.00       0.00       2.16       9.95       0.12      10.07        3.11   536.45   0.749
  sub62                     13.45       0.00       0.00       0.98      10.84       0.10      10.94        3.36   552.35   0.813
  sub63                     13.45       0.00       0.00       3.77       8.69       0.14       8.83        2.67   492.63   0.656
  sub64                     13.45       0.00       0.00       1.93       9.45       0.09       9.54        2.90   416.72   0.709
  sub65                     13.45       0.00       0.00       1.67       9.61       0.08       9.70        2.98   423.09   0.721
  sub66                     13.45       0.00       0.00       3.81       8.10       0.09       8.18        2.51   380.66   0.608
  sub67                     13.45       0.00       0.00       0.95      11.38       0.13      11.51        3.55   679.52   0.856
  sub68                     13.45       0.00       0.00       1.75      10.45       0.13      10.59        3.26   586.26   0.787
  sub69                     13.45       0.00       0.00       1.83      10.79       0.19      10.98        2.57   544.72   0.816
  sub70                     13.45      11.20       0.00       7.51      14.65       0.88      15.52        3.55   494.81   0.630
  sub71                     13.45       0.00       0.00       0.99      10.58       0.09      10.67        2.52   389.24   0.793
  sub72                     13.45       0.00       0.00       0.89       8.56       0.05       8.61        1.75   189.18   0.640
  1                         13.45      15.11       0.00       1.37      16.56       4.63      21.19        4.98   484.42   0.742
  2                         13.45       0.00       0.00       3.02       3.21       1.96       5.17        2.07   340.45   0.384
  
  
  ****************************
  Subcatchment Washoff Summary
  ****************************
  
  ------------------------------------------------------------------------------------------
                                 COD            SS            TN            TP         NH4-N
  Subcatchment                    kg            kg            kg            kg            kg
  ------------------------------------------------------------------------------------------
  sub0                         2.670         5.197         0.046         0.004         0.022
  sub1                        11.241        22.423         0.210         0.015         0.101
  sub2                         6.894        13.384         0.145         0.010         0.067
  sub3                        16.924        32.573         0.350         0.024         0.161
  sub4                        25.772        51.904         0.510         0.031         0.245
  sub5                        25.778        50.682         0.460         0.035         0.223
  sub7                         5.751        11.638         0.108         0.007         0.052
  sub8                         8.581        17.755         0.171         0.010         0.082
  sub9                         7.353        15.005         0.142         0.009         0.068
  sub10                       21.202        42.223         0.389         0.028         0.188
  sub11                       20.657        41.614         0.386         0.026         0.187
  sub12                       17.724        35.094         0.321         0.024         0.155
  sub14                       15.732        31.800         0.298         0.020         0.144
  sub15                       20.231        39.321         0.389         0.028         0.182
  sub16                       13.129        25.518         0.249         0.019         0.117
  sub17                       12.049        23.208         0.222         0.017         0.105
  sub22                       62.582       119.432         1.186         0.090         0.554
  sub23                       36.683        72.439         0.776         0.051         0.357
  sub60                      243.520       456.962         4.842         0.298         2.321
  sub61                      302.151       564.434         5.627         0.386         2.710
  sub62                      313.722       596.076         6.119         0.388         2.938
  sub63                      223.275       410.850         4.468         0.314         2.075
  sub64                      305.877       553.773         5.626         0.410         2.687
  sub65                      313.037       569.066         5.795         0.415         2.772
  sub66                      176.068       321.340         3.608         0.236         1.687
  sub67                      466.222       877.505         8.365         0.616         4.045
  sub68                      332.037       626.413         6.347         0.429         3.034
  sub69                      298.258       568.561         5.590         0.393         2.674
  sub70                      502.897       962.303        10.037         0.699         4.710
  sub71                      206.745       396.330         4.242         0.246         2.030
  sub72                      164.385       293.107         3.069         0.210         1.476
  1                          349.075       671.606         7.102         0.495         3.297
  2                           42.749        75.577         1.214         0.073         0.518
  ------------------------------------------------------------------------------------------
  System                    4570.974      8595.115        88.408         6.057        41.983
  
  
  ******************
  Node Depth Summary
  ******************
  
  ---------------------------------------------------------------------------------
                                 Average  Maximum  Maximum  Time of Max    Reported
                                   Depth    Depth      HGL   Occurrence   Max Depth
  Node                 Type       Meters   Meters   Meters  days hr:min      Meters
  ---------------------------------------------------------------------------------
  WS02001211           JUNCTION     0.78     0.85     5.69     0  03:07        0.85
  WS02001212           JUNCTION     0.49     0.58     5.64     0  03:06        0.58
  WS02001213           JUNCTION     0.74     0.85     5.62     0  03:05        0.85
  WS02003069           JUNCTION     0.55     0.72     5.31     0  03:05        0.72
  WS02003072           JUNCTION     0.61     0.76     5.13     0  03:05        0.76
  WS02003073           JUNCTION     0.37     0.48     4.54     0  03:06        0.48
  WS02003060           JUNCTION     0.49     0.64     5.57     0  03:04        0.64
  WS02003066           JUNCTION     0.28     0.39     5.94     0  03:04        0.39
  WS02003059           JUNCTION     0.79     0.91     5.60     0  03:05        0.91
  WS02003067           JUNCTION     0.66     0.82     6.14     0  03:03        0.82
  WS02004401           JUNCTION     0.81     1.24     7.24     0  03:02        1.23
  WS02004402           JUNCTION     0.83     1.23     7.19     0  03:02        1.22
  WS02004403           JUNCTION     0.85     1.21     7.14     0  03:02        1.20
  WS02004404           JUNCTION     0.92     1.25     7.10     0  03:03        1.24
  WS02004406           JUNCTION     0.91     1.16     6.99     0  03:02        1.16
  WS02004409           JUNCTION     0.62     0.96     6.73     0  03:03        0.96
  WS02004410           JUNCTION     0.63     0.95     6.67     0  03:03        0.95
  WS02004411           JUNCTION     0.64     0.93     6.61     0  03:03        0.93
  WS02004412           JUNCTION     0.65     0.90     6.54     0  03:03        0.90
  WS02004413           JUNCTION     0.80     1.02     6.49     0  03:03        1.02
  WS02004405           JUNCTION     0.91     1.22     7.07     0  03:02        1.21
  WS02006109           JUNCTION     0.92     1.66     8.28     0  03:02        1.65
  WS02006110           JUNCTION     0.87     1.45     8.03     0  03:02        1.44
  WS02006111           JUNCTION     0.29     0.89     7.59     0  03:02        0.88
  WS02006112           JUNCTION     1.00     1.56     7.44     0  03:01        1.55
  WS02006113           JUNCTION     0.43     0.92     7.82     0  03:02        0.92
  WS02006115           JUNCTION     0.71     1.22     7.36     0  03:02        1.21
  WS02006116           JUNCTION     0.79     1.26     7.30     0  03:02        1.25
  WS02006230           JUNCTION     0.99     1.88     8.62     0  03:02        1.87
  WS02006231           JUNCTION     0.72     1.53     8.65     0  03:02        1.51
  WS02006232           JUNCTION     0.89     1.63     8.66     0  03:02        1.61
  WS02006234           JUNCTION     0.86     1.53     8.68     0  03:02        1.51
  WS02006235           JUNCTION     0.91     1.54     8.71     0  03:02        1.53
  WS02006238           JUNCTION     0.94     1.56     8.70     0  03:02        1.54
  WS02006240           JUNCTION     0.85     1.40     8.70     0  03:02        1.40
  WS02006242           JUNCTION     0.91     1.43     8.70     0  03:03        1.42
  WS02006243           JUNCTION     0.80     1.28     8.70     0  03:02        1.27
  WS02006245           JUNCTION     0.77     1.22     8.70     0  03:02        1.20
  WS02006247           JUNCTION     0.78     1.20     8.70     0  03:02        1.19
  WS02006248           JUNCTION     0.72     1.10     8.69     0  02:53        1.10
  WS02006249           JUNCTION     0.74     1.09     8.69     0  01:52        1.09
  WS02006239           JUNCTION     0.90     1.49     8.70     0  03:02        1.48
  WS02006251           JUNCTION     0.73     1.42     9.09     0  01:52        1.38
  WS02006252           JUNCTION     0.45     0.98     9.22     0  01:52        0.94
  WS02006253           JUNCTION     0.76     1.65     9.30     0  01:52        1.43
  WS02006256           JUNCTION     2.05     2.35     9.28     0  00:00        2.35
  WS02004138           JUNCTION     0.19     0.20     7.45     0  00:00        0.19
  WS02004139           JUNCTION     0.72     0.79     5.70     0  03:07        0.79
  WS02004407           JUNCTION     0.27     0.40     6.71     0  03:02        0.40
  WS02006228           JUNCTION     0.95     1.84     8.49     0  03:02        1.83
  WS02006229           JUNCTION     0.95     1.90     8.60     0  03:02        1.89
  WS02006280           JUNCTION     0.07     0.30     8.57     0  03:05        0.30
  WS02006284           JUNCTION     0.37     0.65     9.04     0  03:02        0.64
  WS02006287           JUNCTION     0.10     0.39     9.34     0  03:02        0.39
  WSF200               JUNCTION     0.28     0.44     5.67     0  03:04        0.44
  HS02004901           JUNCTION     0.12     0.38    10.20     0  03:01        0.37
  HS02004881           JUNCTION     0.01     0.05     9.08     0  03:01        0.05
  HS02004876           JUNCTION     0.04     0.16     9.19     0  03:01        0.16
  HS02004870           JUNCTION     0.02     0.09     9.38     0  03:01        0.09
  HS02004862           JUNCTION     0.02     0.11     9.49     0  03:01        0.11
  HS02004856           JUNCTION     0.08     0.15     9.58     0  03:01        0.15
  HS02004852           JUNCTION     0.01     0.07     9.59     0  03:02        0.07
  HS02004848           JUNCTION     0.01     0.07     9.67     0  03:01        0.07
  HS02004842           JUNCTION     0.33     0.40     9.67     0  03:01        0.40
  HS02004837           JUNCTION     0.03     0.09     9.67     0  03:01        0.09
  HS02004830           JUNCTION     0.04     0.10     9.57     0  03:01        0.10
  HS02004824           JUNCTION     0.02     0.13     9.53     0  03:02        0.13
  HS02004817           JUNCTION     0.44     0.69     9.54     0  03:02        0.69
  HS02004807           JUNCTION     0.13     0.36     9.53     0  03:02        0.36
  HS02004802           JUNCTION     0.16     0.39     9.52     0  03:02        0.39
  HS02004799           JUNCTION     0.12     0.46     9.68     0  03:01        0.46
  HS02004792           JUNCTION     0.03     0.22     9.74     0  03:01        0.21
  HS02004788           JUNCTION     0.03     0.16    10.05     0  03:02        0.16
  HS02004785           JUNCTION     0.05     0.25    10.15     0  03:02        0.25
  HS02004777           JUNCTION     0.15     0.39    10.19     0  03:01        0.39
  HS02004770           JUNCTION     0.12     0.37    10.20     0  03:01        0.36
  HS02004480           JUNCTION     0.08     0.38     9.62     0  03:01        0.38
  HS02004479           JUNCTION     0.12     0.42     9.62     0  03:01        0.42
  HS02004478           JUNCTION     0.06     0.28     9.50     0  03:01        0.28
  YS02001745           JUNCTION     0.70     0.90     8.41     0  03:01        0.90
  YS02001748           JUNCTION     1.09     1.63     8.70     0  02:40        1.33
  YS02001751           JUNCTION     1.27     1.66     8.54     0  02:38        1.53
  YS02001754           JUNCTION     1.53     1.82     8.43     0  03:30        1.81
  YS02001762           JUNCTION     1.73     2.03     8.43     0  03:32        2.02
  YS02001765           JUNCTION     1.68     1.98     8.43     0  03:32        1.96
  YS02001767           JUNCTION     1.64     1.93     8.42     0  03:35        1.92
  YS02001770           JUNCTION     1.64     1.91     8.41     0  03:21        1.90
  YS02001774           JUNCTION     1.71     1.98     8.40     0  03:34        1.97
  YS02001779           JUNCTION     1.45     1.68     8.37     0  02:39        1.68
  YS02001882           JUNCTION     0.53     1.63     8.35     0  02:59        1.63
  YS02001884           JUNCTION     0.63     1.73     8.35     0  03:02        1.73
  YS02001759           JUNCTION     1.76     2.08     8.44     0  04:06        2.05
  YS02001887           JUNCTION     0.71     1.81     8.35     0  03:00        1.81
  YS02001890           JUNCTION     0.74     1.81     8.32     0  02:45        1.81
  YS02001898           JUNCTION     0.50     1.56     8.30     0  02:58        1.56
  YS02001901           JUNCTION     0.62     1.68     8.29     0  03:06        1.67
  YS02001904           JUNCTION     0.60     1.64     8.27     0  03:12        1.63
  YS02001907           JUNCTION     0.93     1.96     8.25     0  02:45        1.96
  YS02001910           JUNCTION     0.72     1.78     8.29     0  02:46        1.77
  YS02001915           JUNCTION     0.52     1.59     8.31     0  02:46        1.58
  YS02001918           JUNCTION     0.27     1.28     8.35     0  02:46        1.24
  YS02001619           JUNCTION     1.24     1.51     8.44     0  02:38        1.48
  YS02001629           JUNCTION     1.59     1.85     8.40     0  02:38        1.84
  YS02001641           JUNCTION     1.69     1.93     8.37     0  02:57        1.93
  YS02001644           JUNCTION     1.69     1.92     8.35     0  02:45        1.92
  YS02001652           JUNCTION     1.54     2.10     8.70     0  03:43        1.99
  YS02001655           JUNCTION     1.30     2.10     8.95     0  03:43        1.87
  YS02001920           JUNCTION     0.38     1.36     8.37     0  02:46        1.30
  YS02001923           JUNCTION     0.22     1.13     8.39     0  02:46        1.06
  YS02001926           JUNCTION     0.28     0.93     8.37     0  02:46        0.90
  YS02001929           JUNCTION     0.16     0.69     8.38     0  02:46        0.68
  YS02001658           JUNCTION     1.03     2.08     9.22     0  03:43        1.63
  YS02001661           JUNCTION     0.81     2.00     9.40     0  03:43        1.23
  YS02001664           JUNCTION     0.36     0.58     8.50     0  04:08        0.56
  YS02001622           JUNCTION     1.26     1.50     8.41     0  03:00        1.50
  YS02001633           JUNCTION     1.68     1.95     8.40     0  03:05        1.94
  YS02001649           JUNCTION     1.73     2.05     8.44     0  02:53        2.05
  YS02001757           JUNCTION     1.86     2.18     8.44     0  04:06        2.16
  YS02001895           JUNCTION     0.50     1.57     8.31     0  02:57        1.56
  YS02001625           JUNCTION     1.54     1.78     8.38     0  02:38        1.78
  YS02163301           JUNCTION     1.62     1.88     8.40     0  02:53        1.88
  YS02163601           JUNCTION     1.73     1.99     8.39     0  02:46        1.98
  YS02164001           JUNCTION     1.67     1.92     8.38     0  03:01        1.91
  YS02001647           JUNCTION     1.52     1.80     8.41     0  04:06        1.79
  YSB1154              JUNCTION     0.26     0.57     9.62     0  03:01        0.57
  YSB6556              JUNCTION     0.15     0.45     9.62     0  03:02        0.45
  YSB1174              JUNCTION     0.21     0.52     9.62     0  03:01        0.51
  YSB1171              JUNCTION     0.41     0.72     9.62     0  03:01        0.72
  YS02006553           JUNCTION     0.93     1.97     8.25     0  03:00        1.97
  YS02006561           JUNCTION     0.30     1.08     7.74     0  03:01        1.07
  YS02006556           JUNCTION     0.90     1.94     8.25     0  03:00        1.93
  YS02006558           JUNCTION     0.94     1.98     8.25     0  03:00        1.97
  YS02001783           JUNCTION     0.49     1.65     7.79     0  02:28        1.46
  YS02001784           JUNCTION     0.50     1.61     7.68     0  02:28        1.41
  YS02001786           JUNCTION     0.44     1.76     7.79     0  02:28        1.25
  YS02001788           JUNCTION     0.35     1.66     7.63     0  02:28        1.12
  YS02001790           JUNCTION     0.42     1.96     7.60     0  02:27        1.29
  YS02001791           JUNCTION     0.34     2.20     7.67     0  02:27        1.27
  YS02001793           JUNCTION     0.39     2.37     7.20     0  02:26        1.80
  WSC                  OUTFALL      0.37     0.48     1.15     0  03:06        0.48
  JK-storage           STORAGE      1.57     5.80     6.60     0  02:28        5.80
  CC-storage           STORAGE      1.09     1.38     8.38     0  03:33        1.38
  XR-storage           STORAGE      6.55     7.72     5.72     0  02:59        7.72
  
  
  *******************
  Node Inflow Summary
  *******************
  
  -------------------------------------------------------------------------------------------------
                                  Maximum  Maximum                  Lateral       Total        Flow
                                  Lateral    Total  Time of Max      Inflow      Inflow     Balance
                                   Inflow   Inflow   Occurrence      Volume      Volume       Error
  Node                 Type           LPS      LPS  days hr:min    10^6 ltr    10^6 ltr     Percent
  -------------------------------------------------------------------------------------------------
  WS02001211           JUNCTION      7.35   390.37     0  03:16       0.207        10.1       0.405
  WS02001212           JUNCTION      0.00   393.32     0  03:16           0          10       0.246
  WS02001213           JUNCTION      0.00   395.86     0  03:15           0          10       0.292
  WS02003069           JUNCTION      0.32  1334.99     0  03:05     0.00902        22.5       0.165
  WS02003072           JUNCTION      0.00  1334.65     0  03:05           0        22.5       0.196
  WS02003073           JUNCTION      1.82  1336.50     0  03:06      0.0514        22.5       0.228
  WS02003060           JUNCTION     16.53  1334.89     0  03:04       0.466        22.6       0.153
  WS02003066           JUNCTION      0.00   938.47     0  03:04           0        12.2       0.040
  WS02003059           JUNCTION      0.00   398.82     0  03:15           0        9.99       0.410
  WS02003067           JUNCTION      0.00   937.96     0  03:04           0        12.2       0.082
  WS02004401           JUNCTION      0.00   939.84     0  03:02           0        12.4       0.178
  WS02004402           JUNCTION      0.00   939.91     0  03:02           0        12.4       0.167
  WS02004403           JUNCTION      0.00   940.17     0  03:02           0        12.4       0.153
  WS02004404           JUNCTION      0.16   940.02     0  03:02     0.00457        12.4       0.114
  WS02004406           JUNCTION      0.00   939.79     0  03:02           0        12.3       0.280
  WS02004409           JUNCTION      0.00   939.36     0  03:03           0        12.3       0.146
  WS02004410           JUNCTION      0.00   938.19     0  03:03           0        12.3       0.164
  WS02004411           JUNCTION      0.00   937.69     0  03:03           0        12.2       0.168
  WS02004412           JUNCTION      0.00   937.34     0  03:03           0        12.2       0.180
  WS02004413           JUNCTION      0.00   937.90     0  03:04           0        12.2       0.264
  WS02004405           JUNCTION      0.04   940.49     0  03:02     0.00107        12.3       0.172
  WS02006109           JUNCTION      1.23   915.70     0  03:02      0.0347        12.5       0.165
  WS02006110           JUNCTION      0.00   915.59     0  03:02           0        12.4       0.150
  WS02006111           JUNCTION      0.00   915.83     0  03:02           0        12.4       0.028
  WS02006112           JUNCTION     30.67   939.57     0  03:02      0.0853        12.5       0.247
  WS02006113           JUNCTION      0.00   915.83     0  03:02           0        12.4       0.084
  WS02006115           JUNCTION      0.00   939.57     0  03:02           0        12.5       0.172
  WS02006116           JUNCTION      0.00   939.73     0  03:02           0        12.4       0.147
  WS02006230           JUNCTION     10.28   532.85     0  07:01        0.29          10       0.125
  WS02006231           JUNCTION      0.00   522.49     0  07:02           0        9.75       0.114
  WS02006232           JUNCTION      0.00   522.42     0  07:01           0        9.77       0.166
  WS02006234           JUNCTION      0.00   522.77     0  07:02           0        9.77       0.069
  WS02006235           JUNCTION      0.00   523.57     0  07:00           0        9.85       0.112
  WS02006238           JUNCTION      0.00   412.18     0  04:40           0        5.69       0.114
  WS02006240           JUNCTION      0.00   412.35     0  04:40           0        5.64       0.164
  WS02006242           JUNCTION      0.00   411.87     0  04:40           0        5.63       0.185
  WS02006243           JUNCTION      0.00   412.02     0  04:40           0        5.62       0.062
  WS02006245           JUNCTION      0.00   412.08     0  04:40           0        5.62       0.091
  WS02006247           JUNCTION      0.00   412.01     0  04:40           0        5.62       0.037
  WS02006248           JUNCTION      0.00   411.86     0  04:40           0        5.61      -0.007
  WS02006249           JUNCTION      0.00   543.98     0  03:01           0        7.13       0.024
  WS02006239           JUNCTION      0.00   412.25     0  04:40           0        5.66       0.143
  WS02006251           JUNCTION      0.08   544.60     0  03:01     0.00217        7.18      -0.000
  WS02006252           JUNCTION      0.00   400.00     0  01:50           0        6.66       0.003
  WS02006253           JUNCTION      3.75   207.40     0  01:52      0.0103       0.522      -0.049
  WS02006256           JUNCTION      0.00   983.00     0  02:50           0        11.5      -0.012
  WS02004138           JUNCTION      0.00   380.00     0  00:00           0        9.92       0.064
  WS02004139           JUNCTION      0.32   395.85     0  00:00     0.00905        9.92       0.463
  WS02004407           JUNCTION      0.00   939.87     0  03:02           0        12.3       0.063
  WS02006228           JUNCTION      0.00   914.79     0  03:02           0        12.4       0.126
  WS02006229           JUNCTION      0.00   916.74     0  03:02           0        12.4       0.099
  WS02006280           JUNCTION      0.00   680.23     0  03:02           0        2.43       0.003
  WS02006284           JUNCTION      0.10   679.10     0  03:02      0.0027        2.43       0.049
  WS02006287           JUNCTION      0.00   677.72     0  03:02           0        2.43       0.029
  WSF200               JUNCTION      0.00   938.62     0  03:04           0        12.2       0.038
  HS02004901           JUNCTION     37.63    37.63     0  03:01       0.103       0.103       1.739
  HS02004881           JUNCTION     14.26   140.55     0  03:01      0.0422       0.463       0.066
  HS02004876           JUNCTION     25.66   127.65     0  03:01      0.0814       0.422       0.133
  HS02004870           JUNCTION     26.26   103.58     0  03:01      0.0799        0.34       0.033
  HS02004862           JUNCTION     25.49    79.37     0  03:01      0.0888       0.261       0.068
  HS02004856           JUNCTION     19.64    55.41     0  03:01      0.0601       0.173       0.843
  HS02004852           JUNCTION      0.00    37.85     0  03:01           0       0.113       0.053
  HS02004848           JUNCTION     55.75    55.75     0  03:01       0.197       0.197       0.026
  HS02004842           JUNCTION      0.00    16.84     0  03:01           0       0.097      15.491
  HS02004837           JUNCTION     50.35    65.69     0  03:01       0.318       0.402       0.203
  HS02004830           JUNCTION      0.15    64.80     0  03:01     0.00423       0.392       0.316
  HS02004824           JUNCTION     65.57   128.44     0  03:01       0.251       0.642       0.085
  HS02004817           JUNCTION      0.60   124.48     0  03:01      0.0169       0.658       2.600
  HS02004807           JUNCTION     48.45   165.78     0  03:01       0.147       0.788       0.553
  HS02004802           JUNCTION      0.00   165.31     0  03:04           0       0.785       0.505
  HS02004799           JUNCTION     38.67   446.10     0  03:01       0.119        1.42       0.191
  HS02004792           JUNCTION    184.82   411.82     0  03:01        0.54         1.3       0.032
  HS02004788           JUNCTION     58.68   233.42     0  03:02       0.219       0.758       0.052
  HS02004785           JUNCTION      0.15   182.22     0  03:01     0.00423        0.54       0.093
  HS02004777           JUNCTION      0.03   185.03     0  03:01    0.000846       0.541       0.971
  HS02004770           JUNCTION    154.22   188.91     0  03:01       0.441       0.542       0.576
  HS02004480           JUNCTION      0.00   517.27     0  03:01           0        1.66       0.071
  HS02004479           JUNCTION      0.00    75.44     0  03:02           0       0.258       0.286
  HS02004478           JUNCTION      0.00   677.13     0  03:02           0        2.43       0.012
  YS02001745           JUNCTION    438.14   438.14     0  03:01        3.01        3.02       0.381
  YS02001748           JUNCTION      0.04   611.67     0  02:40     0.00127        3.01       0.706
  YS02001751           JUNCTION      0.01   447.50     0  03:01     0.00031        2.98       0.798
  YS02001754           JUNCTION      0.26   447.88     0  03:01     0.00733        2.96       0.857
  YS02001762           JUNCTION      0.00   384.08     0  02:50           0        2.05       1.041
  YS02001765           JUNCTION      0.00   384.60     0  02:50           0        2.06       1.190
  YS02001767           JUNCTION      0.54   384.85     0  02:50      0.0151        2.08       1.747
  YS02001770           JUNCTION    552.50   552.50     0  03:01        3.37        3.43       0.917
  YS02001774           JUNCTION      0.00   423.33     0  03:01           0        1.39       1.827
  YS02001779           JUNCTION      0.01   423.13     0  03:01    0.000141        1.36       1.136
  YS02001882           JUNCTION      0.00    25.88     0  02:33           0      0.0181      16.558
  YS02001884           JUNCTION      0.00    51.39     0  02:33           0      0.0555      13.153
  YS02001759           JUNCTION    536.49   766.97     0  02:51        3.11        5.07       0.453
  YS02001887           JUNCTION    679.97   680.00     0  03:01        3.56         3.6       0.248
  YS02001890           JUNCTION      0.00   680.69     0  03:01           0        3.55       0.276
  YS02001898           JUNCTION      0.00   518.47     0  03:08           0        3.45       0.101
  YS02001901           JUNCTION      0.00   518.85     0  03:10           0        3.44       0.217
  YS02001904           JUNCTION      0.00   518.50     0  03:09           0        3.44       0.198
  YS02001907           JUNCTION      0.00  1096.15     0  03:02           0        7.76       0.325
  YS02001910           JUNCTION      0.00   579.74     0  03:02           0        4.34       0.282
  YS02001915           JUNCTION    389.26   579.21     0  03:02        2.52        4.37       0.154
  YS02001918           JUNCTION      0.00   233.40     0  02:47           0        1.86       0.115
  YS02001619           JUNCTION    380.66   380.66     0  03:01        2.51        2.51       0.492
  YS02001629           JUNCTION      0.00   227.71     0  02:45           0        1.63       1.822
  YS02001641           JUNCTION      0.00   476.84     0  02:45           0        4.49       0.477
  YS02001644           JUNCTION    416.76  1127.78     0  03:18         2.9        9.45       0.281
  YS02001652           JUNCTION      0.00   516.61     0  03:01           0        2.64       0.880
  YS02001655           JUNCTION      0.15   515.21     0  03:01     0.00434        2.67       0.943
  YS02001920           JUNCTION      2.87   232.66     0  02:47      0.0809        1.85       0.175
  YS02001923           JUNCTION      0.04   220.91     0  02:47     0.00106        1.76       0.057
  YS02001926           JUNCTION      0.05   199.62     0  03:01     0.00147        1.76       0.190
  YS02001929           JUNCTION    189.18   189.18     0  03:01        1.75        1.75       0.035
  YS02001658           JUNCTION      0.00   622.93     0  02:38           0        2.69       0.888
  YS02001661           JUNCTION      0.00   717.34     0  02:53           0        3.13      -0.737
  YS02001664           JUNCTION    492.63   492.63     0  03:01        2.67        3.13       0.242
  YS02001622           JUNCTION      0.00   381.16     0  03:01           0         2.5       1.294
  YS02001633           JUNCTION    423.29   478.62     0  02:45        2.99        4.56       0.709
  YS02001649           JUNCTION      0.00  1004.44     0  02:46           0        5.49       0.684
  YS02001757           JUNCTION      0.00  1956.85     0  02:47           0        11.3       0.827
  YS02001895           JUNCTION      0.00   518.66     0  03:08           0        3.45       0.159
  YS02001625           JUNCTION      0.00   408.21     0  03:01           0        2.47       1.592
  YS02163301           JUNCTION      0.00   243.60     0  02:40           0        1.61       1.522
  YS02163601           JUNCTION      0.11   478.26     0  02:45      0.0031        4.51       0.672
  YS02164001           JUNCTION      0.00   477.87     0  02:45           0        4.49       0.451
  YS02001647           JUNCTION      0.00   725.19     0  02:45           0        4.26       0.668
  YSB1154              JUNCTION     44.76    44.76     0  03:01       0.144       0.144       1.014
  YSB6556              JUNCTION      0.00    43.28     0  03:01           0       0.145       0.870
  YSB1174              JUNCTION     38.10    38.10     0  03:01       0.106       0.107       1.220
  YSB1171              JUNCTION      0.00    76.93     0  03:01           0       0.257       2.524
  YS02006553           JUNCTION      0.00   708.26     0  03:45           0        6.68       0.241
  YS02006561           JUNCTION      0.00   983.82     0  03:00           0         9.9       0.008
  YS02006556           JUNCTION      0.00   708.10     0  03:45           0        6.68       0.175
  YS02006558           JUNCTION    587.14   985.32     0  03:00        3.28        9.93       0.057
  YS02001783           JUNCTION      0.00   984.07     0  03:00           0         9.9       0.023
  YS02001784           JUNCTION      1.06   984.90     0  03:01      0.0299        9.93       0.042
  YS02001786           JUNCTION      0.06   985.37     0  03:01     0.00159        9.93       0.036
  YS02001788           JUNCTION      0.07   985.34     0  03:01       0.002        9.93       0.025
  YS02001790           JUNCTION      0.15   985.40     0  03:01     0.00437        9.93       0.025
  YS02001791           JUNCTION      0.00   985.71     0  03:01           0        9.93       0.016
  YS02001793           JUNCTION      0.00   986.22     0  03:01           0        9.94      -0.012
  WSC                  OUTFALL       0.00  1336.49     0  03:06           0        22.5       0.000
  JK-storage           STORAGE       0.00  1206.23     0  04:49           0        10.1     -16.543
  CC-storage           STORAGE       0.00  1956.85     0  02:47           0        10.4      -0.272
  XR-storage           STORAGE    1024.87  1024.87     0  03:01        12.7        13.3      -0.007
  
  
  **********************
  Node Surcharge Summary
  **********************
  
  Surcharging occurs when water rises above the top of the highest conduit.
  ---------------------------------------------------------------------
                                               Max. Height   Min. Depth
                                   Hours       Above Crown    Below Rim
  Node                 Type      Surcharged         Meters       Meters
  ---------------------------------------------------------------------
  WS02004401           JUNCTION        1.10          0.236        1.424
  WS02004402           JUNCTION        1.26          0.226        1.514
  WS02004403           JUNCTION        1.30          0.206        1.824
  WS02004404           JUNCTION        1.76          0.247        2.533
  WS02004406           JUNCTION        1.58          0.165        2.285
  WS02004413           JUNCTION        0.22          0.023        2.177
  WS02004405           JUNCTION        1.60          0.221        2.579
  WS02006109           JUNCTION        5.30          0.839        0.981
  WS02006110           JUNCTION        3.50          0.537        1.313
  WS02006111           JUNCTION        0.13          0.076        1.794
  WS02006112           JUNCTION        4.07          0.560        1.120
  WS02006113           JUNCTION        0.16          0.123        1.807
  WS02006115           JUNCTION        0.64          0.208        2.042
  WS02006116           JUNCTION        0.67          0.203        2.087
  WS02006230           JUNCTION        3.30          0.799        0.771
  WS02006231           JUNCTION        3.98          0.815        0.715
  WS02006232           JUNCTION        5.34          0.925        0.555
  WS02006234           JUNCTION        5.05          0.807        0.433
  WS02006235           JUNCTION        5.19          0.832        0.458
  WS02006238           JUNCTION        5.22          0.837        0.593
  WS02006240           JUNCTION        4.96          0.693        0.697
  WS02006242           JUNCTION        5.02          0.697        0.123
  WS02006243           JUNCTION        4.53          0.567        0.203
  WS02006245           JUNCTION        4.36          0.508        0.342
  WS02006247           JUNCTION        4.37          0.490        0.270
  WS02006248           JUNCTION        3.98          0.380        0.000
  WS02006249           JUNCTION        4.04          0.390        0.000
  WS02006239           JUNCTION        5.05          0.748        0.542
  WS02006251           JUNCTION        3.08          0.392        0.788
  WS02006252           JUNCTION        4.28          0.579        0.521
  WS02006253           JUNCTION        3.13          0.614        1.866
  WS02006256           JUNCTION        7.82          2.050        0.000
  WS02006228           JUNCTION        5.27          1.005        1.195
  YS02001748           JUNCTION        5.11          0.545        0.645
  YS02001751           JUNCTION        5.20          0.663        0.537
  YS02001754           JUNCTION        5.38          0.768        0.382
  YS02001762           JUNCTION        5.74          1.031        0.119
  YS02001765           JUNCTION        5.71          0.977        0.123
  YS02001767           JUNCTION        5.54          0.932        0.098
  YS02001770           JUNCTION        5.51          0.881        0.039
  YS02001774           JUNCTION        5.73          0.976        0.074
  YS02001779           JUNCTION        5.37          0.680        0.000
  YS02001882           JUNCTION        1.12          0.633        0.197
  YS02001884           JUNCTION        1.14          0.674        0.196
  YS02001759           JUNCTION        5.77          1.075        0.135
  YS02001887           JUNCTION        1.21          0.763        0.187
  YS02001890           JUNCTION        1.24          0.760        0.000
  YS02001898           JUNCTION        1.09          0.533        0.207
  YS02001901           JUNCTION        1.18          0.679        0.191
  YS02001904           JUNCTION        1.16          0.636        0.214
  YS02001907           JUNCTION        1.93          0.950        0.000
  YS02001910           JUNCTION        1.28          0.779        0.321
  YS02001915           JUNCTION        1.11          0.594        0.406
  YS02001918           JUNCTION        0.94          0.285        0.525
  YS02001619           JUNCTION        5.23          0.509        0.101
  YS02001629           JUNCTION        5.23          0.470        0.000
  YS02001641           JUNCTION        5.72          0.935        0.165
  YS02001644           JUNCTION        5.72          0.920        0.000
  YS02001652           JUNCTION        5.47          1.071        0.059
  YS02001655           JUNCTION        5.24          1.098        0.102
  YS02001920           JUNCTION        0.96          0.361        0.779
  YS02001658           JUNCTION        5.13          1.079        0.221
  YS02001661           JUNCTION        0.21          0.929        0.461
  YS02001622           JUNCTION        5.25          0.505        0.115
  YS02001633           JUNCTION        5.70          0.929        0.131
  YS02001649           JUNCTION        5.75          1.050        0.000
  YS02001757           JUNCTION        5.86          1.175        0.035
  YS02001895           JUNCTION        1.10          0.567        0.183
  YS02001625           JUNCTION        5.48          0.780        0.000
  YS02163301           JUNCTION        5.54          0.881        0.149
  YS02163601           JUNCTION        5.75          0.993        0.087
  YS02164001           JUNCTION        5.70          0.918        0.182
  YS02001647           JUNCTION        5.48          0.801        0.099
  YS02006553           JUNCTION        2.02          0.970        0.220
  YS02006561           JUNCTION        0.99          0.282        0.868
  YS02006556           JUNCTION        1.51          0.897        0.453
  YS02006558           JUNCTION        1.47          0.882        0.518
  YS02001783           JUNCTION        1.38          0.849        0.751
  YS02001784           JUNCTION        1.36          0.812        0.678
  YS02001786           JUNCTION        1.30          0.960        0.470
  YS02001788           JUNCTION        1.25          0.855        0.625
  YS02001790           JUNCTION        1.36          1.157        0.000
  YS02001791           JUNCTION        1.36          1.403        0.517
  YS02001793           JUNCTION        1.45          1.372        1.228
  
  
  *********************
  Node Flooding Summary
  *********************
  
  Flooding refers to all water that overflows a node, whether it ponds or not.
  --------------------------------------------------------------------------
                                                             Total   Maximum
                                 Maximum   Time of Max       Flood    Ponded
                        Hours       Rate    Occurrence      Volume     Depth
  Node                 Flooded       LPS   days hr:min    10^6 ltr    Meters
  --------------------------------------------------------------------------
  WS02006248              0.08     14.88      0  03:03       0.002     0.000
  WS02006249              3.00    458.36      0  03:02       1.519     0.000
  WS02006256              4.92    831.07      0  03:02       7.290     0.000
  YS02001779              2.55    422.70      0  03:01       1.339     0.000
  YS02001890              0.34    165.04      0  03:01       0.085     0.000
  YS02001907              0.81    699.64      0  03:01       1.072     0.000
  YS02001629              0.01      9.93      0  02:38       0.000     0.000
  YS02001644              4.26   1127.65      0  03:18       7.244     0.000
  YS02001649              0.03     29.80      0  03:28       0.001     0.000
  YS02001625              1.34    408.20      0  03:01       0.818     0.000
  YS02001790              0.01    227.82      0  02:27       0.000     0.000
  JK-storage              0.36    688.35      0  02:30       0.568     0.000
  XR-storage              3.46    644.83      0  03:01       2.615     0.000
  
  
  **********************
  Storage Volume Summary
  **********************
  
  --------------------------------------------------------------------------------------------------
                         Average     Avg  Evap Exfil       Maximum     Max    Time of Max    Maximum
                          Volume    Pcnt  Pcnt  Pcnt        Volume    Pcnt     Occurrence    Outflow
  Storage Unit           1000 m3    Full  Loss  Loss       1000 m3    Full    days hr:min        LPS
  --------------------------------------------------------------------------------------------------
  JK-storage               0.079      27     0     0         0.291     100       0  02:28     983.00
  CC-storage               3.047      19     0     0         3.833      24       0  03:33     400.00
  XR-storage               0.785      85     0     0         0.926     100       0  02:59     380.00
  
  
  ***********************
  Outfall Loading Summary
  ***********************
  
  ---------------------------------------------------------------------------------------------------------------------------------
                         Flow       Avg       Max       Total         Total         Total         Total         Total         Total
                         Freq      Flow      Flow      Volume           COD            SS            TN            TP         NH4-N
  Outfall Node           Pcnt       LPS       LPS    10^6 ltr            kg            kg            kg            kg            kg
  ---------------------------------------------------------------------------------------------------------------------------------
  WSC                   99.98    872.20   1336.49      22.460      2530.913      4408.371       151.552        17.618        91.156
  ---------------------------------------------------------------------------------------------------------------------------------
  System                99.98    872.20   1336.49      22.460      2530.913      4408.371       151.552        17.618        91.156
  
  
  ********************
  Link Flow Summary
  ********************
  
  -----------------------------------------------------------------------------
                                 Maximum  Time of Max   Maximum    Max/    Max/
                                  |Flow|   Occurrence   |Veloc|    Full    Full
  Link                 Type          LPS  days hr:min     m/sec    Flow   Depth
  -----------------------------------------------------------------------------
  WS02003066WSF200     CONDUIT    938.62     0  03:04      3.00    0.16    0.32
  WS02006287WS02006284 CONDUIT    679.00     0  03:02      2.38    0.31    0.39
  WS02006284WS02006280 CONDUIT    680.23     0  03:02      2.62    0.28    0.37
  WS02006280WS02006229 CONDUIT    680.29     0  03:02      3.41    0.15    0.50
  WS02006229WS02006228 CONDUIT    914.79     0  03:02      1.82    3.03    1.00
  WS02006256WS02006235 CONDUIT    288.92     0  00:00      4.23    3.06    1.00
  WS02006253WS02006251 CONDUIT    172.06     0  01:52      0.45    0.52    1.00
  WS02006252WS02006251 CONDUIT    405.38     0  01:53      3.23    1.49    1.00
  WS02006251WS02006249 CONDUIT    543.98     0  03:01      1.41    1.57    1.00
  WS02006249WS02006248 CONDUIT    411.86     0  04:40      1.18    2.26    1.00
  WS02006248WS02006247 CONDUIT    412.01     0  04:40      1.12    0.90    1.00
  WS02006247WS02006245 CONDUIT    412.08     0  04:40      1.07    3.27    1.00
  WS02006245WS02006243 CONDUIT    412.02     0  04:40      1.08    1.22    1.00
  WS02006243WS02006242 CONDUIT    411.87     0  04:40      1.07    0.88    1.00
  WS02006242WS02006240 CONDUIT    412.35     0  04:40      1.07    1.64    1.00
  WS02006240WS02006239 CONDUIT    412.25     0  04:40      1.07    1.30    1.00
  WS02006239WS02006238 CONDUIT    412.18     0  04:40      1.07    1.32    1.00
  WS02006238WS02006235 CONDUIT    413.16     0  04:39      1.45    0.92    1.00
  WS02006235WS02006234 CONDUIT    522.77     0  07:02      1.36    5.52    1.00
  WS02006234WS02006232 CONDUIT    522.42     0  07:01      1.39    1.06    1.00
  WS02006232WS02006231 CONDUIT    522.49     0  07:02      1.36    1.09    1.00
  WS02006231WS02006230 CONDUIT    522.57     0  07:01      1.36    7.93    1.00
  WS02006230WS02006229 CONDUIT    532.76     0  07:01      1.38   11.86    1.00
  WS02006228WS02006109 CONDUIT    914.47     0  03:02      1.82    4.00    1.00
  WS02006116WS02004401 CONDUIT    939.84     0  03:02      1.20    1.30    1.00
  WS02006115WS02006116 CONDUIT    939.73     0  03:02      1.20    1.21    1.00
  WS02006113WS02006111 CONDUIT    915.83     0  03:02      2.65    1.10    1.00
  WS02006112WS02006115 CONDUIT    939.57     0  03:02      1.20    0.55    1.00
  WS02006111WS02006112 CONDUIT    916.08     0  03:02      1.82    0.44    1.00
  WS02006110WS02006113 CONDUIT    915.83     0  03:02      1.82    0.83    1.00
  WS02006109WS02006110 CONDUIT    915.59     0  03:02      1.82    1.76    1.00
  WS02004411WS02004412 CONDUIT    937.34     0  03:03      1.24    1.33    0.92
  WS02004401WS02004402 CONDUIT    939.91     0  03:02      1.20    1.13    1.00
  WS02004413WS02003067 CONDUIT    937.96     0  03:04      1.55    0.40    0.72
  WS02004412WS02004413 CONDUIT    937.90     0  03:04      1.22    0.63    0.95
  WS02004410WS02004411 CONDUIT    937.69     0  03:03      1.23    1.28    0.94
  WS02004409WS02004410 CONDUIT    938.19     0  03:03      1.21    1.21    0.95
  WS02004407WS02004409 CONDUIT    939.36     0  03:03      1.66    0.33    0.68
  WS02004406WS02004407 CONDUIT    939.87     0  03:02      1.60    0.42    0.70
  WS02004405WS02004406 CONDUIT    939.79     0  03:02      1.20    1.85    1.00
  WS02004404WS02004405 CONDUIT    940.45     0  03:02      1.20    9.21    1.00
  WS02004403WS02004404 CONDUIT    939.86     0  03:02      1.20    0.68    1.00
  WS02004402WS02004403 CONDUIT    940.17     0  03:02      1.20    1.35    1.00
  WS02004139WS02001211 CONDUIT    383.03     0  03:16      0.90    0.48    0.64
  WS02004138WS02004139 CONDUIT    395.52     0  00:00      3.64    0.08    0.47
  WS02003067WS02003066 CONDUIT    938.47     0  03:04      1.65    0.30    0.50
  WS02001213WS02003059 CONDUIT    398.82     0  03:15      0.89    0.66    0.87
  WS02001212WS02001213 CONDUIT    395.86     0  03:15      1.32    0.61    0.56
  WS02001211WS02001212 CONDUIT    393.32     0  03:16      0.78    0.30    0.71
  WS02003072WS02003073 CONDUIT   1334.68     0  03:06      1.96    2.88    0.58
  WS02003069WS02003072 CONDUIT   1334.65     0  03:05      1.82    0.64    0.62
  WS02003060WS02003069 CONDUIT   1334.67     0  03:05      2.03    0.52    0.56
  WS02003059WS02003060 CONDUIT    402.38     0  03:15      0.95    0.26    0.77
  HS02004901HS02004770 CONDUIT     37.23     0  03:01      0.10    0.14    0.53
  HS02004876HS02004881 CONDUIT    127.65     0  03:01      1.21    1.36    0.15
  HS02004870HS02004876 CONDUIT    103.11     0  03:01      0.82    0.07    0.18
  HS02004842HS02004848 CONDUIT     16.84     0  03:01      0.07    0.01    0.33
  HS02004837HS02004842 CONDUIT     17.91     0  03:03      0.42    0.01    0.35
  HS02004830HS02004837 CONDUIT     64.65     0  03:01      0.67    0.06    0.14
  HS02004824HS02004830 CONDUIT     64.13     0  03:02      0.62    0.08    0.16
  HS02004817HS02004824 CONDUIT    123.88     0  03:01      0.31    0.06    0.58
  HS02004770HS02004777 CONDUIT    185.00     0  03:01      0.49    0.34    0.54
  HS02004799HS02004480 CONDUIT    444.40     0  03:01      1.07    0.56    0.60
  HS02004792HS02004799 CONDUIT    408.52     0  03:01      1.20    0.25    0.49
  HS02004788HS02004792 CONDUIT    232.94     0  03:02      1.28    0.15    0.26
  HS02004785HS02004788 CONDUIT    181.80     0  03:02      0.91    1.37    0.29
  HS02004777HS02004785 CONDUIT    182.07     0  03:01      0.57    0.22    0.45
  HS02004480HS02004478 CONDUIT    517.42     0  03:01      1.55    2.18    0.48
  HS02004479HS02004480 CONDUIT     77.33     0  03:02      0.30    0.07    0.57
  HS02004862HS02004870 CONDUIT     79.03     0  03:01      0.80    0.09    0.14
  HS02004848HS02004852 CONDUIT     37.85     0  03:01      0.53    0.04    0.10
  HS02004856HS02004862 CONDUIT     54.77     0  03:01      0.59    0.05    0.13
  HS02004852HS02004856 CONDUIT     37.76     0  03:02      0.34    0.04    0.16
  HS02004802HS02004478 CONDUIT    170.17     0  03:04      0.54    0.15    0.48
  HS02004478WS02006287 CONDUIT    677.72     0  03:02      2.11    0.19    0.36
  HS02004817HS02004807 CONDUIT    128.13     0  03:04      0.25    0.08    0.75
  HS02004807HS02004802 CONDUIT    165.31     0  03:04      0.46    0.32    0.53
  YS02001759YS02001757 CONDUIT    767.85     0  02:51      0.98    0.55    1.00
  YS02001762YS02001759 CONDUIT    383.53     0  02:50      0.49    0.44    1.00
  YS02001765YS02001762 CONDUIT    384.08     0  02:50      0.49    0.36    1.00
  YS02001770YS02001767 CONDUIT    384.32     0  02:50      0.49    1.52    1.00
  YS02001774YS02001770 CONDUIT    423.33     0  03:01      0.54    0.27    1.00
  YS02001779YS02001774 CONDUIT    423.13     0  03:01      0.54    0.21    1.00
  YS02001649YS02001757 CONDUIT   1003.78     0  02:46      1.28    0.61    1.00
  YS02001767YS02001765 CONDUIT    384.60     0  02:50      0.49    0.48    1.00
  YS02006561YS02001783 CONDUIT    984.07     0  03:00      2.15    0.51    1.00
  YS02001783YS02001784 CONDUIT    983.84     0  03:01      1.96    1.36    1.00
  YS02001784YS02001785 CONDUIT    985.32     0  03:01      1.96    2.29    1.00
  YS02001788YS02001790 CONDUIT    985.24     0  03:01      2.44    0.73    1.00
  YS02001790YS02001791 CONDUIT    985.71     0  03:01      2.91    1.07    1.00
  YS02001791YS02001793 CONDUIT    986.22     0  03:01      5.77    0.42    1.00
  YS02001910YS02001907 CONDUIT    579.43     0  03:02      0.74    0.33    1.00
  YS02001786YS02001788 CONDUIT    985.27     0  03:01      2.31    1.90    1.00
  YS02001915YS02001910 CONDUIT    579.74     0  03:02      0.74    0.29    1.00
  YS02001918YS02001915 CONDUIT    256.43     0  03:45      0.44    0.14    1.00
  YS02001923YS02001920 CONDUIT    229.79     0  02:47      0.75    0.10    1.00
  YS02001926YS02001923 CONDUIT    220.88     0  02:47      0.86    0.32    0.92
  YS02001929YS02001926 CONDUIT    199.57     0  03:01      0.92    0.09    0.80
  YS02001920YS02001918 CONDUIT    233.40     0  02:47      0.72    0.23    1.00
  YS02001629YS02163301 CONDUIT    243.60     0  02:40      0.31    0.30    1.00
  YS02001619YS02001622 CONDUIT    381.16     0  03:01      0.59    0.56    1.00
  YS02001622YS02001625 CONDUIT    381.29     0  03:01      0.49    0.20    1.00
  YS02001625YS02001629 CONDUIT    227.71     0  02:45      0.29    0.11    1.00
  YS02163301YS02001633 CONDUIT    244.53     0  02:40      0.31    0.23    1.00
  YS02163601YS02164001 CONDUIT    477.87     0  02:45      0.61    0.42    1.00
  YS02164001YS02001641 CONDUIT    476.84     0  02:45      0.61    0.65    1.00
  YS02001641YS02001644 CONDUIT    480.30     0  02:41      0.61    1.55    1.00
  YS02001647YS02001649 CONDUIT    725.43     0  02:45      0.92    0.38    1.00
  YS02006553YS02006556 CONDUIT    708.10     0  03:45      0.90    0.61    1.00
  YS02006556YS02006558 CONDUIT    708.47     0  03:45      0.90    0.56    1.00
  YSB6556YSB1171       CONDUIT     42.84     0  03:02      0.13    0.04    0.82
  YS02001907YS02006553 CONDUIT    708.26     0  03:45      0.79    0.83    1.00
  YS02006558YS02006561 CONDUIT    983.82     0  03:00      3.48    2.17    1.00
  YS02001633YS02163601 CONDUIT    478.15     0  02:45      0.61    0.50    1.00
  YS02001644YS02001647 CONDUIT    725.19     0  02:45      0.92    0.43    1.00
  YS02001745YS02001748 CONDUIT    611.63     0  02:40      1.46    0.24    0.95
  YS02001748YS02001751 CONDUIT    447.49     0  03:01      1.03    0.23    1.00
  YS02001751YS02001754 CONDUIT    447.62     0  03:01      0.88    0.22    1.00
  YS02001754YS02001757 CONDUIT    447.72     0  03:01      0.57    0.18    1.00
  YS02001882YS02001884 CONDUIT     25.88     0  02:33      0.12    0.03    1.00
  YS02001884YS02001887 CONDUIT     51.39     0  02:33      0.08    0.07    1.00
  YS02001890YS02001895 CONDUIT    518.66     0  03:08      0.66    0.24    1.00
  YS02001895YS02001898 CONDUIT    518.47     0  03:08      0.66    0.90    1.00
  YS02001898YS02001901 CONDUIT    518.85     0  03:10      0.66    0.33    1.00
  YS02001901YS02001904 CONDUIT    518.50     0  03:09      0.66    0.80    1.00
  YS02001904YS02001907 CONDUIT    518.73     0  03:06      0.66    0.18    1.00
  YS02001887YS02001890 CONDUIT    680.69     0  03:01      0.87    1.16    1.00
  YS02001652YS02001649 CONDUIT    518.65     0  03:01      0.66    0.26    1.00
  YS02001655YS02001652 CONDUIT    516.61     0  03:01      0.94    0.25    1.00
  YS02001658YS02001655 CONDUIT    515.06     0  03:01      1.18    0.22    1.00
  YS02001661YS02001658 CONDUIT    622.93     0  02:38      1.53    0.24    1.00
  YS02001664YS02001661 CONDUIT    717.34     0  02:53      1.63    0.22    0.74
  YSB1154YSB6556       CONDUIT     43.28     0  03:01      0.18    0.08    0.73
  YSB1174YSB1171       CONDUIT     36.65     0  03:01      0.11    0.06    0.85
  YSB1171HS02004479    CONDUIT     75.44     0  03:02      0.54    0.05    0.68
  HS02004881HS02006253 CONDUIT    140.49     0  03:01      1.53    0.03    0.54
  YS02001793JiankangQianchi CONDUIT   1206.23     0  04:49     16.50    0.10    1.00
  YS02001757CaochengTiaoxuchi CONDUIT   1956.85     0  02:47      2.77    0.86    1.00
  WSF200WS02003060     CONDUIT    938.97     0  03:04      1.92    0.21    0.45
  1                    CONDUIT   1336.49     0  03:06      3.59    0.47    0.48
  CC-Pump-1            PUMP       200.00     0  01:50              1.00
  CC-Pump-2            PUMP       200.00     0  01:50              1.00
  JK-Pump-1            PUMP       300.00     0  00:00              1.00
  JK-Pump-2            PUMP       683.00     0  02:50              1.00
  XR-Pump-1            PUMP        95.00     0  00:00              1.00
  XR-Pump-2            PUMP        95.00     0  00:00              1.00
  XR-Pump-3            PUMP        95.00     0  00:00              1.00
  XR-Pump-4            PUMP        95.00     0  00:00              1.00
  
  
  ***************************
  Flow Classification Summary
  ***************************
  
  -------------------------------------------------------------------------------------
                      Adjusted    ---------- Fraction of Time in Flow Class ---------- 
                       /Actual         Up    Down  Sub   Sup   Up    Down  Norm  Inlet 
  Conduit               Length    Dry  Dry   Dry   Crit  Crit  Crit  Crit  Ltd   Ctrl  
  -------------------------------------------------------------------------------------
  WS02003066WSF200        1.00   0.01  0.02  0.00  0.00  0.97  0.00  0.00  0.38  0.00
  WS02006287WS02006284    1.00   0.03  0.01  0.00  0.65  0.31  0.00  0.00  0.65  0.00
  WS02006284WS02006280    1.00   0.04  0.00  0.00  0.00  0.00  0.00  0.96  0.00  0.00
  WS02006280WS02006229    1.00   0.04  0.00  0.00  0.01  0.04  0.00  0.91  0.04  0.00
  WS02006229WS02006228    1.00   0.00  0.00  0.00  1.00  0.00  0.00  0.00  0.00  0.00
  WS02006256WS02006235    1.00   0.00  0.00  0.00  1.00  0.00  0.00  0.00  0.00  0.00
  WS02006253WS02006251    1.00   0.02  0.02  0.00  0.96  0.00  0.01  0.00  0.00  0.00
  WS02006252WS02006251    1.00   0.07  0.00  0.00  0.33  0.00  0.60  0.00  0.00  0.00
  WS02006251WS02006249    1.00   0.00  0.00  0.00  1.00  0.00  0.00  0.00  0.21  0.00
  WS02006249WS02006248    1.00   0.00  0.01  0.00  0.93  0.00  0.06  0.00  0.00  0.00
  WS02006248WS02006247    1.00   0.01  0.00  0.00  0.99  0.00  0.00  0.00  0.11  0.00
  WS02006247WS02006245    1.00   0.00  0.00  0.00  0.99  0.00  0.00  0.00  0.00  0.00
  WS02006245WS02006243    1.00   0.00  0.00  0.00  0.96  0.00  0.00  0.03  0.00  0.00
  WS02006243WS02006242    1.00   0.00  0.00  0.00  1.00  0.00  0.00  0.00  0.18  0.00
  WS02006242WS02006240    1.00   0.00  0.00  0.00  1.00  0.00  0.00  0.00  0.00  0.00
  WS02006240WS02006239    1.00   0.00  0.00  0.00  0.96  0.00  0.00  0.04  0.01  0.00
  WS02006239WS02006238    1.00   0.00  0.00  0.00  1.00  0.00  0.00  0.00  0.00  0.00
  WS02006238WS02006235    1.00   0.00  0.00  0.00  1.00  0.00  0.00  0.00  0.00  0.00
  WS02006235WS02006234    1.00   0.00  0.00  0.00  0.97  0.00  0.03  0.00  0.00  0.00
  WS02006234WS02006232    1.00   0.00  0.00  0.00  1.00  0.00  0.00  0.00  0.01  0.00
  WS02006232WS02006231    1.00   0.00  0.00  0.00  1.00  0.00  0.00  0.00  0.00  0.00
  WS02006231WS02006230    1.00   0.00  0.00  0.00  0.88  0.00  0.12  0.00  0.00  0.00
  WS02006230WS02006229    1.00   0.00  0.00  0.00  1.00  0.00  0.00  0.00  0.00  0.00
  WS02006228WS02006109    1.00   0.00  0.00  0.00  1.00  0.00  0.00  0.00  0.00  0.00
  WS02006116WS02004401    1.00   0.01  0.00  0.00  0.99  0.00  0.00  0.00  0.00  0.00
  WS02006115WS02006116    1.00   0.01  0.00  0.00  0.99  0.00  0.00  0.00  0.00  0.00
  WS02006113WS02006111    1.00   0.01  0.00  0.00  0.06  0.94  0.00  0.00  0.11  0.00
  WS02006112WS02006115    1.00   0.01  0.00  0.00  0.99  0.00  0.00  0.00  0.00  0.00
  WS02006111WS02006112    1.00   0.01  0.00  0.00  0.99  0.00  0.00  0.00  0.77  0.00
  WS02006110WS02006113    1.00   0.00  0.00  0.00  0.99  0.00  0.00  0.00  0.00  0.00
  WS02006109WS02006110    1.00   0.00  0.00  0.00  0.99  0.00  0.00  0.00  0.00  0.00
  WS02004411WS02004412    1.00   0.02  0.00  0.00  0.98  0.00  0.00  0.00  0.00  0.00
  WS02004401WS02004402    1.00   0.01  0.00  0.00  0.99  0.00  0.00  0.00  0.00  0.00
  WS02004413WS02003067    1.00   0.02  0.01  0.00  0.00  0.00  0.98  0.00  0.00  0.00
  WS02004412WS02004413    1.00   0.02  0.00  0.00  0.98  0.00  0.00  0.00  0.01  0.00
  WS02004410WS02004411    1.00   0.02  0.00  0.00  0.98  0.00  0.00  0.00  0.00  0.00
  WS02004409WS02004410    1.00   0.02  0.00  0.00  0.98  0.00  0.00  0.00  0.02  0.00
  WS02004407WS02004409    1.00   0.02  0.00  0.00  0.98  0.00  0.00  0.00  0.95  0.00
  WS02004406WS02004407    1.00   0.00  0.01  0.00  0.98  0.00  0.00  0.00  0.00  0.00
  WS02004405WS02004406    1.00   0.00  0.00  0.00  1.00  0.00  0.00  0.00  0.00  0.00
  WS02004404WS02004405    1.00   0.00  0.00  0.00  1.00  0.00  0.00  0.00  0.00  0.00
  WS02004403WS02004404    1.00   0.00  0.01  0.00  0.99  0.00  0.00  0.00  0.00  0.00
  WS02004402WS02004403    1.00   0.01  0.00  0.00  0.99  0.00  0.00  0.00  0.00  0.00
  WS02004139WS02001211    1.00   0.00  0.00  0.00  1.00  0.00  0.00  0.00  0.00  0.00
  WS02004138WS02004139    1.00   0.00  0.00  0.00  1.00  0.00  0.00  0.00  1.00  0.00
  WS02003067WS02003066    1.00   0.02  0.00  0.00  0.97  0.00  0.00  0.00  0.00  0.00
  WS02001213WS02003059    1.00   0.00  0.00  0.00  1.00  0.00  0.00  0.00  0.00  0.00
  WS02001212WS02001213    1.00   0.00  0.00  0.00  0.93  0.00  0.07  0.00  0.00  0.00
  WS02001211WS02001212    1.00   0.00  0.00  0.00  1.00  0.00  0.00  0.00  0.00  0.00
  WS02003072WS02003073    1.00   0.00  0.00  0.00  0.00  0.00  0.00  1.00  0.00  0.00
  WS02003069WS02003072    1.00   0.00  0.00  0.00  1.00  0.00  0.00  0.00  0.11  0.00
  WS02003060WS02003069    1.00   0.00  0.00  0.00  0.99  0.01  0.00  0.00  0.09  0.00
  WS02003059WS02003060    1.00   0.00  0.00  0.00  1.00  0.00  0.00  0.00  0.01  0.00
  HS02004901HS02004770    1.00   0.04  0.00  0.00  0.96  0.00  0.00  0.00  0.00  0.00
  HS02004876HS02004881    1.00   0.01  0.00  0.00  0.93  0.06  0.00  0.00  0.00  0.00
  HS02004870HS02004876    1.00   0.00  0.00  0.00  0.99  0.00  0.00  0.00  0.95  0.00
  HS02004842HS02004848    1.00   0.00  0.04  0.00  0.96  0.00  0.00  0.00  0.54  0.00
  HS02004837HS02004842    1.00   0.00  0.00  0.00  1.00  0.00  0.00  0.00  0.11  0.00
  HS02004830HS02004837    1.00   0.00  0.00  0.00  1.00  0.00  0.00  0.00  0.99  0.00
  HS02004824HS02004830    1.00   0.00  0.00  0.00  1.00  0.00  0.00  0.00  0.01  0.00
  HS02004817HS02004824    1.00   0.00  0.00  0.00  1.00  0.00  0.00  0.00  0.97  0.00
  HS02004770HS02004777    1.00   0.00  0.04  0.00  0.96  0.00  0.00  0.00  0.03  0.00
  HS02004799HS02004480    1.00   0.00  0.01  0.00  0.96  0.00  0.03  0.00  0.00  0.00
  HS02004792HS02004799    1.00   0.00  0.00  0.00  1.00  0.00  0.00  0.00  0.98  0.00
  HS02004788HS02004792    1.00   0.00  0.00  0.00  1.00  0.00  0.00  0.00  0.98  0.00
  HS02004785HS02004788    1.00   0.00  0.00  0.00  1.00  0.00  0.00  0.00  0.00  0.00
  HS02004777HS02004785    1.00   0.00  0.00  0.00  1.00  0.00  0.00  0.00  0.12  0.00
  HS02004480HS02004478    1.00   0.04  0.00  0.00  0.70  0.00  0.00  0.27  0.00  0.00
  HS02004479HS02004480    1.00   0.01  0.00  0.00  0.99  0.00  0.00  0.00  0.12  0.00
  HS02004862HS02004870    1.00   0.00  0.00  0.00  1.00  0.00  0.00  0.00  0.04  0.00
  HS02004848HS02004852    1.00   0.04  0.00  0.00  0.96  0.00  0.00  0.00  0.64  0.00
  HS02004856HS02004862    1.00   0.00  0.05  0.00  0.95  0.00  0.00  0.00  0.83  0.00
  HS02004852HS02004856    1.00   0.04  0.00  0.00  0.96  0.00  0.00  0.00  0.81  0.00
  HS02004802HS02004478    1.00   0.04  0.00  0.00  0.96  0.00  0.00  0.00  0.02  0.00
  HS02004478WS02006287    1.00   0.04  0.00  0.00  0.78  0.18  0.00  0.00  0.65  0.00
  HS02004817HS02004807    1.00   0.00  0.04  0.00  0.96  0.00  0.00  0.00  0.01  0.00
  HS02004807HS02004802    1.00   0.04  0.00  0.00  0.96  0.00  0.00  0.00  0.00  0.00
  YS02001759YS02001757    1.00   0.00  0.00  0.00  1.00  0.00  0.00  0.00  0.16  0.00
  YS02001762YS02001759    1.00   0.00  0.00  0.00  1.00  0.00  0.00  0.00  0.03  0.00
  YS02001765YS02001762    1.00   0.00  0.00  0.00  1.00  0.00  0.00  0.00  0.14  0.00
  YS02001770YS02001767    1.00   0.00  0.00  0.00  1.00  0.00  0.00  0.00  0.00  0.00
  YS02001774YS02001770    1.00   0.00  0.04  0.00  0.96  0.00  0.00  0.00  0.03  0.00
  YS02001779YS02001774    1.00   0.00  0.00  0.00  1.00  0.00  0.00  0.00  0.19  0.00
  YS02001649YS02001757    1.00   0.00  0.00  0.00  1.00  0.00  0.00  0.00  0.16  0.00
  YS02001767YS02001765    1.00   0.00  0.00  0.00  1.00  0.00  0.00  0.00  0.00  0.00
  YS02006561YS02001783    1.00   0.05  0.00  0.00  0.18  0.77  0.00  0.00  0.44  0.00
  YS02001783YS02001784    1.00   0.00  0.05  0.00  0.95  0.00  0.00  0.00  0.00  0.00
  YS02001784YS02001785    1.00   0.00  0.00  0.00  1.00  0.00  0.00  0.00  0.18  0.00
  YS02001788YS02001790    1.00   0.00  0.00  0.00  0.22  0.78  0.00  0.00  0.41  0.00
  YS02001790YS02001791    1.00   0.00  0.00  0.00  0.17  0.83  0.00  0.00  0.58  0.00
  YS02001791YS02001793    1.00   0.00  0.00  0.00  0.19  0.81  0.00  0.00  0.02  0.00
  YS02001910YS02001907    1.00   0.00  0.00  0.00  0.99  0.00  0.00  0.01  0.12  0.00
  YS02001786YS02001788    1.00   0.00  0.00  0.00  0.23  0.77  0.00  0.00  0.00  0.00
  YS02001915YS02001910    1.00   0.00  0.00  0.00  0.99  0.01  0.00  0.00  0.16  0.00
  YS02001918YS02001915    1.00   0.00  0.00  0.00  0.99  0.01  0.00  0.00  0.53  0.00
  YS02001923YS02001920    1.00   0.00  0.00  0.00  1.00  0.00  0.00  0.00  0.82  0.00
  YS02001926YS02001923    1.00   0.00  0.02  0.00  0.14  0.00  0.84  0.00  0.00  0.00
  YS02001929YS02001926    1.00   0.00  0.04  0.00  0.96  0.00  0.00  0.00  0.74  0.00
  YS02001920YS02001918    1.00   0.00  0.00  0.00  1.00  0.00  0.00  0.00  0.00  0.00
  YS02001629YS02163301    1.00   0.04  0.00  0.00  0.95  0.00  0.00  0.00  0.00  0.00
  YS02001619YS02001622    1.00   0.04  0.00  0.00  0.96  0.00  0.00  0.00  0.00  0.00
  YS02001622YS02001625    1.00   0.04  0.00  0.00  0.96  0.00  0.00  0.00  0.05  0.00
  YS02001625YS02001629    1.00   0.04  0.02  0.00  0.93  0.00  0.02  0.00  0.00  0.00
  YS02163301YS02001633    1.00   0.00  0.04  0.00  0.96  0.00  0.00  0.00  0.00  0.00
  YS02163601YS02164001    1.00   0.00  0.03  0.00  0.97  0.00  0.00  0.00  0.00  0.00
  YS02164001YS02001641    1.00   0.00  0.02  0.00  0.97  0.00  0.00  0.00  0.06  0.00
  YS02001641YS02001644    1.00   0.00  0.00  0.00  1.00  0.00  0.00  0.00  0.00  0.00
  YS02001647YS02001649    1.00   0.00  0.05  0.00  0.95  0.00  0.00  0.00  0.01  0.00
  YS02006553YS02006556    1.00   0.01  0.00  0.00  0.99  0.00  0.00  0.00  0.03  0.00
  YS02006556YS02006558    1.00   0.00  0.00  0.00  1.00  0.00  0.00  0.00  0.00  0.00
  YSB6556YSB1171          1.00   0.02  0.02  0.00  0.96  0.00  0.00  0.00  0.00  0.00
  YS02001907YS02006553    1.00   0.00  0.01  0.00  0.99  0.00  0.00  0.00  0.00  0.00
  YS02006558YS02006561    1.00   0.05  0.00  0.00  0.14  0.80  0.00  0.00  0.47  0.00
  YS02001633YS02163601    1.00   0.00  0.00  0.00  1.00  0.00  0.00  0.00  0.15  0.00
  YS02001644YS02001647    1.00   0.00  0.05  0.00  0.95  0.00  0.00  0.00  0.00  0.00
  YS02001745YS02001748    1.00   0.00  0.00  0.00  0.89  0.01  0.00  0.10  0.07  0.00
  YS02001748YS02001751    1.00   0.00  0.00  0.00  0.97  0.03  0.00  0.00  0.15  0.00
  YS02001751YS02001754    1.00   0.00  0.00  0.00  0.94  0.00  0.00  0.06  0.02  0.00
  YS02001754YS02001757    1.00   0.00  0.00  0.00  1.00  0.00  0.00  0.00  0.18  0.00
  YS02001882YS02001884    1.00   0.04  0.00  0.00  0.96  0.00  0.00  0.00  0.00  0.00
  YS02001884YS02001887    1.00   0.02  0.01  0.00  0.97  0.00  0.00  0.00  0.00  0.00
  YS02001890YS02001895    1.00   0.00  0.04  0.00  0.96  0.00  0.00  0.00  0.00  0.00
  YS02001895YS02001898    1.00   0.04  0.00  0.00  0.94  0.00  0.01  0.00  0.00  0.00
  YS02001898YS02001901    1.00   0.05  0.00  0.00  0.95  0.00  0.00  0.00  0.01  0.00
  YS02001901YS02001904    1.00   0.05  0.00  0.00  0.95  0.00  0.00  0.00  0.00  0.00
  YS02001904YS02001907    1.00   0.00  0.04  0.00  0.95  0.00  0.00  0.00  0.00  0.00
  YS02001887YS02001890    1.00   0.00  0.00  0.00  0.99  0.00  0.01  0.00  0.00  0.00
  YS02001652YS02001649    1.00   0.00  0.00  0.00  1.00  0.00  0.00  0.00  0.17  0.00
  YS02001655YS02001652    1.00   0.00  0.00  0.00  0.94  0.00  0.00  0.06  0.02  0.00
  YS02001658YS02001655    1.00   0.00  0.04  0.00  0.93  0.03  0.00  0.00  0.10  0.00
  YS02001661YS02001658    1.00   0.04  0.00  0.00  0.89  0.07  0.00  0.00  0.14  0.00
  YS02001664YS02001661    1.00   0.04  0.00  0.00  0.87  0.10  0.00  0.00  0.21  0.00
  YSB1154YSB6556          1.00   0.04  0.00  0.00  0.96  0.00  0.00  0.00  0.02  0.00
  YSB1174YSB1171          1.00   0.02  0.01  0.00  0.97  0.00  0.00  0.00  0.00  0.00
  YSB1171HS02004479       1.00   0.01  0.00  0.00  0.98  0.00  0.00  0.00  0.10  0.00
  HS02004881HS02006253    1.00   0.02  0.00  0.00  0.87  0.00  0.00  0.10  0.72  0.00
  YS02001793JiankangQianchi    1.00   0.00  0.00  0.00  0.40  0.60  0.00  0.00  0.20  0.00
  YS02001757CaochengTiaoxuchi    1.00   0.00  0.07  0.00  0.89  0.04  0.00  0.00  0.00  0.00
  WSF200WS02003060        1.00   0.00  0.01  0.00  0.97  0.02  0.00  0.00  0.22  0.00
  1                       1.00   0.00  0.00  0.00  0.00  1.00  0.00  0.00  0.57  0.00
  
  
  *************************
  Conduit Surcharge Summary
  *************************
  
  ----------------------------------------------------------------------------
                                                           Hours        Hours 
                         --------- Hours Full --------   Above Full   Capacity
  Conduit                Both Ends  Upstream  Dnstream   Normal Flow   Limited
  ----------------------------------------------------------------------------
  WS02006229WS02006228        5.27      5.34      5.27      5.91         5.27
  WS02006256WS02006235        6.40      6.41      7.82      5.80         0.01
  WS02006253WS02006251        3.92      3.93      3.99      0.01         0.01
  WS02006252WS02006251        3.34      3.34      4.28      3.96         0.01
  WS02006251WS02006249        3.95      3.95      4.04      3.04         2.86
  WS02006249WS02006248        3.98      3.98      4.04      5.15         0.01
  WS02006248WS02006247        4.04      4.04      4.37      0.01         0.01
  WS02006247WS02006245        4.36      4.41      4.36      5.48         4.17
  WS02006245WS02006243        4.41      4.41      4.53      0.40         0.61
  WS02006243WS02006242        4.57      4.57      5.02      0.01         0.01
  WS02006242WS02006240        4.96      4.96      5.08      3.50         0.01
  WS02006240WS02006239        4.99      4.99      5.05      1.61         1.28
  WS02006239WS02006238        5.15      5.15      5.22      1.85         1.45
  WS02006238WS02006235        5.22      5.22      5.30      0.01         0.03
  WS02006235WS02006234        5.05      5.05      5.19      6.36         0.01
  WS02006234WS02006232        5.12      5.12      5.34      1.77         1.68
  WS02006232WS02006231        3.98      3.98      5.34      2.13         0.01
  WS02006231WS02006230        3.30      3.30      4.09      6.40         0.01
  WS02006230WS02006229        5.60      5.83      5.60      6.49         5.60
  WS02006228WS02006109        5.30      5.44      5.30      6.15         5.30
[...]
  YS02001770YS02001767        5.53      5.53      5.54      0.37         0.92
  YS02001774YS02001770        5.51      5.51      5.73      0.01         0.01
  YS02001779YS02001774        5.37      5.37      5.73      0.01         0.01
  YS02001649YS02001757        5.75      5.75      5.86      0.01         0.01
  YS02001767YS02001765        5.54      5.54      5.71      0.01         0.01
  YS02006561YS02001783        0.99      0.99      1.38      0.01         0.01
  YS02001783YS02001784        1.36      1.38      1.36      1.47         1.26
  YS02001784YS02001785        1.30      1.36      1.30      2.52         1.30
  YS02001788YS02001790        1.25      1.25      1.36      0.01         0.01
  YS02001790YS02001791        1.35      1.36      1.36      1.10         1.07
  YS02001791YS02001793        1.36      1.36      1.50      0.01         0.01
  YS02001910YS02001907        1.28      1.28      1.93      0.01         0.01
  YS02001786YS02001788        1.25      1.30      1.25      2.06         1.25
  YS02001915YS02001910        1.11      1.11      1.28      0.01         0.01
  YS02001918YS02001915        0.94      0.94      1.11      0.01         0.01
  YS02001923YS02001920        0.78      0.78      0.96      0.01         0.01
  YS02001920YS02001918        0.94      0.94      0.96      0.01         0.01
  YS02001629YS02163301        5.49      5.49      5.54      0.01         0.01
  YS02001619YS02001622        5.23      5.23      5.25      0.01         0.02
  YS02001622YS02001625        5.25      5.25      5.48      0.01         0.01
  YS02001625YS02001629        5.23      5.23      5.48      0.01         0.01
  YS02163301YS02001633        5.54      5.54      5.71      0.01         0.01
  YS02163601YS02164001        5.70      5.70      5.75      0.01         0.01
  YS02164001YS02001641        5.70      5.70      5.72      0.01         0.03
  YS02001641YS02001644        5.72      5.72      5.72      1.71         1.67
  YS02001647YS02001649        5.48      5.48      5.75      0.01         0.01
  YS02006553YS02006556        1.51      1.51      2.02      0.01         0.01
  YS02006556YS02006558        1.67      1.67      2.09      0.01         0.01
  YSB6556YSB1171              0.01      0.01      0.07      0.01         0.01
  YS02001907YS02006553        2.54      2.54      2.75      0.01         0.01
  YS02006558YS02006561        1.11      1.47      1.11      2.36         1.11
  YS02001633YS02163601        5.70      5.70      5.75      0.01         0.01
  YS02001644YS02001647        5.48      5.48      5.72      0.01         0.01
  YS02001745YS02001748        0.01      0.01      5.11      0.01         0.01
  YS02001748YS02001751        5.14      5.14      5.20      0.01         0.01
  YS02001751YS02001754        5.20      5.20      5.38      0.01         0.01
  YS02001754YS02001757        5.47      5.47      5.86      0.01         0.01
  YS02001882YS02001884        1.12      1.12      1.14      0.01         0.01
  YS02001884YS02001887        1.19      1.19      1.21      0.01         0.01
  YS02001890YS02001895        1.10      1.10      1.30      0.01         0.01
  YS02001895YS02001898        1.09      1.09      1.10      0.01         0.01
  YS02001898YS02001901        1.10      1.10      1.18      0.01         0.01
  YS02001901YS02001904        1.16      1.16      1.18      0.01         0.01
  YS02001904YS02001907        1.16      1.16      2.03      0.01         0.01
  YS02001887YS02001890        1.24      1.24      1.26      0.16         0.01
  YS02001652YS02001649        5.48      5.48      5.75      0.01         0.01
  YS02001655YS02001652        5.24      5.24      5.47      0.01         0.01
  YS02001658YS02001655        5.13      5.13      5.24      0.01         0.01
  YS02001661YS02001658        0.17      0.17      5.13      0.01         0.01
  YS02001664YS02001661        0.01      0.01      1.15      0.01         0.01
  HS02004881HS02006253        0.01      0.01      3.13      0.01         0.01
  YS02001793JiankangQianchi        1.45      1.45      2.76      0.01         0.01
  YS02001757CaochengTiaoxuchi        4.88      4.88      5.86      0.01         0.01
  
  
  ***************
  Pumping Summary
  ***************
  
  ---------------------------------------------------------------------------------------------------------
                                                  Min       Avg       Max     Total     Power    % Time Off
                        Percent   Number of      Flow      Flow      Flow    Volume     Usage    Pump Curve
  Pump                 Utilized   Start-Ups       LPS       LPS       LPS  10^6 ltr     Kw-hr    Low   High
  ---------------------------------------------------------------------------------------------------------
  CC-Pump-1               75.65           1      0.00    175.41    200.00     3.809      7.42    0.0   13.3
  CC-Pump-2               65.01           4      0.00    133.95    200.00     2.849      6.63    0.0   15.4
  JK-Pump-1               89.35           5      0.00    211.69    300.00     4.680     80.48    0.0    0.0
  JK-Pump-2               76.59           4      0.00    343.09    683.00     6.828    101.44    0.0   97.5
  XR-Pump-1               97.88           2      0.00     94.26     95.00     2.565     25.51    0.0    0.0
  XR-Pump-2               97.88           2      0.00     94.26     95.00     2.565     25.51    0.0    0.0
  XR-Pump-3               95.75           3      0.00     91.82     95.00     2.394     21.76    0.0    0.0
  XR-Pump-4               95.75           3      0.00     91.82     95.00     2.394     21.76    0.0    0.0
  
  
  ***************************
  Link Pollutant Load Summary
  ***************************
  
  ------------------------------------------------------------------------------------------
                                 COD            SS            TN            TP         NH4-N
  Link                            kg            kg            kg            kg            kg
  ------------------------------------------------------------------------------------------
  WS02003066WSF200          1009.140      1893.608        25.026         2.118        13.003
  WS02006287WS02006284       319.470       608.084        10.314         1.015         5.679
  WS02006284WS02006280       319.938       608.846        10.360         1.021         5.707
  WS02006280WS02006229       319.890       608.742        10.358         1.020         5.706
  WS02006229WS02006228      1002.569      1882.387        24.370         2.031        12.591
  WS02006256WS02006235       183.853       341.938         3.865         0.290         1.926
  WS02006253WS02006251        61.620       121.087         1.390         0.106         0.694
  WS02006252WS02006251       592.589      1102.463        11.925         0.843         5.811
  WS02006251WS02006249       646.800      1209.786        13.171         0.939         6.437
  WS02006249WS02006248       503.728       940.439        10.287         0.733         5.033
  WS02006248WS02006247       503.490       939.991        10.281         0.733         5.029
  WS02006247WS02006245       503.353       939.748        10.276         0.732         5.027
  WS02006245WS02006243       502.774       938.722        10.259         0.731         5.017
  WS02006243WS02006242       502.663       938.528        10.256         0.730         5.016
  WS02006242WS02006240       501.760       936.876        10.237         0.729         5.007
  WS02006240WS02006239       501.055       935.593        10.221         0.728         4.999
  WS02006239WS02006238       500.167       933.991        10.202         0.726         4.989
  WS02006238WS02006235       499.922       933.557        10.197         0.726         4.987
  WS02006235WS02006234       683.422      1274.901        14.037         1.013         6.899
  WS02006234WS02006232       683.235      1274.558        14.033         1.013         6.897
  WS02006232WS02006231       683.071      1274.246        14.030         1.013         6.895
  WS02006231WS02006230       682.852      1273.830        14.026         1.013         6.893
  WS02006230WS02006229       682.738      1273.642        14.023         1.012         6.892
  WS02006228WS02006109      1002.218      1881.739        24.358         2.030        12.584
  WS02006116WS02004401      1018.421      1910.682        25.244         2.135        13.113
  WS02006115WS02006116      1019.161      1911.997        25.269         2.137        13.127
  WS02006113WS02006111      1008.811      1891.787        25.109         2.126        13.057
  WS02006112WS02006115      1019.941      1913.356        25.302         2.140        13.146
  WS02006111WS02006112      1008.855      1891.963        25.105         2.125        13.055
  WS02006110WS02006113      1009.428      1892.952        25.129         2.128        13.069
  WS02006109WS02006110      1010.299      1894.554        25.163         2.131        13.088
  WS02004411WS02004412      1011.848      1898.446        25.124         2.127        13.057
  WS02004401WS02004402      1017.588      1909.208        25.212         2.131        13.095
  WS02004413WS02003067      1009.890      1895.045        25.044         2.119        13.012
  WS02004412WS02004413      1010.840      1896.654        25.090         2.124        13.039
  WS02004410WS02004411      1012.742      1900.073        25.151         2.130        13.072
  WS02004409WS02004410      1013.570      1901.556        25.178         2.132        13.087
  WS02004407WS02004409      1014.325      1902.944        25.199         2.134        13.098
  WS02004406WS02004407      1014.668      1903.634        25.202         2.134        13.099
  WS02004405WS02004406      1015.912      1905.879        25.250         2.139        13.127
  WS02004404WS02004405      1016.659      1907.321        25.250         2.138        13.124
  WS02004403WS02004404      1016.050      1906.456        25.158         2.126        13.065
  WS02004402WS02004403      1016.775      1907.742        25.186         2.129        13.081
  WS02004139WS02001211      1382.680      2295.706       112.258        13.703        69.197
  WS02004138WS02004139      1388.966      2306.212       112.743        13.762        69.495
  WS02003067WS02003066      1009.295      1893.896        25.032         2.118        13.006
  WS02001213WS02003059      1415.808      2347.737       115.699        14.137        71.359
  WS02001212WS02001213      1424.841      2362.720       116.426        14.226        71.808
  WS02001211WS02001212      1427.022      2366.280       116.615        14.249        71.925
  WS02003072WS02003073      2525.011      4400.197       150.686        17.506        90.603
  WS02003069WS02003072      2529.949      4408.199       151.113        17.558        90.867
  WS02003060WS02003069      2532.570      4412.741       151.263        17.575        90.957
  WS02003059WS02003060      1412.727      2342.516       115.481        14.111        71.227
  HS02004901HS02004770        13.094        25.474         0.248         0.019         0.116
  HS02004876HS02004881        45.514        90.344         0.999         0.073         0.491
  HS02004870HS02004876        34.382        68.104         0.798         0.060         0.395
  HS02004842HS02004848         6.456        12.343         0.134         0.009         0.062
  HS02004837HS02004842        11.056        19.635         0.603         0.068         0.356
  HS02004830HS02004837        70.298       122.727         4.644         0.552         2.827
  HS02004824HS02004830        71.069       123.982         4.715         0.561         2.871
  HS02004817HS02004824        97.163       176.406         5.254         0.596         3.135
  HS02004770HS02004777        49.661        97.710         1.021         0.069         0.472
  HS02004799HS02004480       162.318       310.821         4.263         0.379         2.209
  HS02004792HS02004799       147.269       280.110         4.028         0.367         2.105
  HS02004788HS02004792        82.814       157.678         2.666         0.255         1.440
  HS02004785HS02004788        51.119       100.043         1.172         0.089         0.567
  HS02004777HS02004785        50.444        98.938         1.112         0.081         0.530
  HS02004480HS02004478       204.810       395.156         4.971         0.429         2.543
  HS02004479HS02004480        46.130        90.116         1.037         0.091         0.538
  HS02004862HS02004870        25.799        50.338         0.628         0.050         0.314
  HS02004848HS02004852        10.252        19.885         0.210         0.014         0.097
  HS02004856HS02004862        17.524        34.749         0.350         0.023         0.164
  HS02004852HS02004856        10.255        19.889         0.210         0.014         0.097
  HS02004802HS02004478       115.338       214.043         5.397         0.592         3.169
  HS02004478WS02006287       319.674       608.437        10.331         1.017         5.689
  HS02004817HS02004807        95.856       174.308         5.130         0.581         3.057
  HS02004807HS02004802       115.594       214.445         5.430         0.596         3.189
  YS02001759YS02001757       461.569       858.996         9.112         0.630         4.442
  YS02001762YS02001759       174.168       321.699         3.749         0.260         1.857
  YS02001765YS02001762       174.899       323.781         3.783         0.264         1.876
  YS02001770YS02001767       173.998       323.315         3.530         0.228         1.710
  YS02001774YS02001770       154.224       301.448         2.979         0.195         1.438
  YS02001779YS02001774       153.060       299.039         3.065         0.209         1.499
  YS02001649YS02001757       319.287       572.163         6.363         0.450         3.039
  YS02001767YS02001765       175.770       325.815         3.814         0.266         1.893
  YS02006561YS02001783      1017.177      1885.157        21.336         1.593        10.619
  YS02001783YS02001784      1017.071      1884.994        21.332         1.592        10.616
  YS02001784YS02001785      1024.307      1896.556        22.043         1.682        11.061
  YS02001788YS02001790      1024.823      1897.367        22.114         1.691        11.106
  YS02001790YS02001791      1025.733      1898.807        22.211         1.703        11.168
  YS02001791YS02001793      1025.622      1898.628        22.206         1.703        11.165
  YS02001910YS02001907       391.034       721.252         9.389         0.718         4.811
  YS02001786YS02001788      1024.467      1896.805        22.070         1.685        11.079
  YS02001915YS02001910       391.128       721.413         9.342         0.712         4.779
  YS02001918YS02001915       189.021       333.759         5.195         0.471         2.796
  YS02001923YS02001920       166.549       296.741         3.206         0.226         1.560
  YS02001926YS02001923       164.668       293.543         3.107         0.215         1.501
  YS02001929YS02001926       164.179       292.718         3.065         0.210         1.474
  YS02001920YS02001918       186.903       329.469         5.127         0.466         2.759
  YS02001629YS02163301        98.948       175.186         2.085         0.135         0.973
  YS02001619YS02001622       175.900       321.191         3.602         0.236         1.684
  YS02001622YS02001625       174.674       319.224         3.573         0.234         1.670
  YS02001625YS02001629       100.091       177.083         2.110         0.136         0.984
  YS02163301YS02001633        99.279       175.992         2.087         0.135         0.975
  YS02163601YS02164001       408.512       738.279         7.954         0.566         3.810
  YS02164001YS02001641       407.979       737.367         7.934         0.564         3.798
  YS02001641YS02001644       408.013       737.338         7.929         0.563         3.795
  YS02001647YS02001649       335.592       606.361         6.620         0.467         3.154
  YS02006553YS02006556       683.383      1255.834        14.713         1.127         7.407
  YS02006556YS02006558       683.288      1255.644        14.683         1.123         7.387
  YSB6556YSB1171              26.524        51.970         0.537         0.045         0.272
  YS02001907YS02006553       683.553      1256.173        14.723         1.128         7.413
  YS02006558YS02006561      1017.197      1885.192        21.336         1.593        10.619
  YS02001633YS02163601       409.249       739.435         7.935         0.562         3.794
  YS02001644YS02001647       342.870       619.920         6.740         0.476         3.210
  YS02001745YS02001748       248.620       465.187         5.373         0.365         2.655
  YS02001748YS02001751       247.417       462.626         5.479         0.382         2.730
  YS02001751YS02001754       246.399       460.931         5.459         0.381         2.721
  YS02001754YS02001757       247.095       461.941         5.622         0.404         2.827
  YS02001882YS02001884         2.710         4.667         0.055         0.004         0.028
  YS02001884YS02001887         6.936        12.274         0.137         0.011         0.068
  YS02001890YS02001895       450.945       846.417         8.301         0.624         4.049
  YS02001895YS02001898       450.744       846.130         8.294         0.624         4.045
  YS02001898YS02001901       450.494       845.697         8.289         0.623         4.043
  YS02001901YS02001904       450.289       845.384         8.294         0.624         4.047
  YS02001904YS02001907       450.439       845.592         8.346         0.631         4.080
  YS02001887YS02001890       468.211       880.653         8.644         0.653         4.222
  YS02001652YS02001649       194.839       363.018         3.914         0.282         1.836
  YS02001655YS02001652       195.295       363.774         3.926         0.283         1.842
  YS02001658YS02001655       194.763       362.975         3.838         0.271         1.785
  YS02001661YS02001658       196.903       366.886         3.881         0.274         1.805
  YS02001664YS02001661       216.211       398.595         4.317         0.304         2.005
  YSB1154YSB6556              26.087        51.274         0.486         0.038         0.240
  YSB1174YSB1171              18.021        35.561         0.361         0.029         0.181
  YSB1171HS02004479           46.094        90.059         1.040         0.092         0.540
  HS02004881HS02006253        51.513       102.575         1.100         0.079         0.538
  YS02001793JiankangQianchi      1028.431      1903.615        22.262         1.707        11.192
  YS02001757CaochengTiaoxuchi       897.293      1653.147        18.304         1.286         8.927
  WSF200WS02003060          1008.762      1892.847        25.023         2.118        13.002
  1                         2530.913      4408.371       151.552        17.618        91.156
  CC-Pump-1                  336.414       625.135         6.783         0.478         3.306
  CC-Pump-2                  256.220       477.417         5.141         0.365         2.505
  JK-Pump-1                  247.441       467.282         5.028         0.372         2.488
  JK-Pump-2                  522.587       990.580        10.447         0.764         5.142
  XR-Pump-1                  365.123       605.237        29.876         3.651        18.428
  XR-Pump-2                  365.123       605.237        29.876         3.651        18.428
  XR-Pump-3                  331.180       550.880        26.644         3.248        16.411
  XR-Pump-4                  331.180       550.880        26.644         3.248        16.411
  

  Analysis begun on:  Sun Jun 13 15:43:01 2021
  Analysis ended on:  Sun Jun 13 15:43:04 2021
  Total elapsed time: 00:00:03