
  EPA STORM WATER MANAGEMENT MODEL - VERSION 5.1 (Build 5.3.0.dev0)
  --------------------------------------------------------------

  WARNING 09: time series interval greater than recording interval for Rain Gage RG1
  WARNING 09: time series interval greater than recording interval for Rain Gage RG2
  WARNING 09: time series interval greater than recording interval for Rain Gage RG3
  WARNING 09: time series interval greater than recording interval for Rain Gage RG4
  
  *********************************************************
  NOTE: The summary statistics displayed in this report are
  based on results found at every computational time step,  
  not just on results from each reporting time step.
  *********************************************************
  
  ****************
  Analysis Options
  ****************
  Flow Units ............... CMS
  Process Models:
    Rainfall/Runoff ........ YES
    RDII ................... NO
    Snowmelt ............... NO
    Groundwater ............ NO
    Flow Routing ........... YES
    Ponding Allowed ........ YES
    Water Quality .......... NO
  Infiltration Method ...... HORTON
  Flow Routing Method ...... DYNWAVE
  Surcharge Method ......... EXTRAN
  Starting Date ............ 08/28/2015 00:00:00
  Ending Date .............. 08/28/2015 23:40:00
  Antecedent Dry Days ...... 0.0
  Report Time Step ......... 00:01:00
  Wet Time Step ............ 00:01:00
  Dry Time Step ............ 00:01:00
  Routing Time Step ........ 5.00 sec
  Variable Time Step ....... YES
  Maximum Trials ........... 8
  Number of Threads ........ 1
  Head Tolerance ........... 0.001500 m
  
  
  **************************        Volume         Depth
  Runoff Quantity Continuity     hectare-m            mm
  **************************     ---------       -------
  Total Precipitation ......         4.719        26.188
  Evaporation Loss .........         0.000         0.000
  Infiltration Loss ........         0.000         0.000
  Surface Runoff ...........         4.702        26.091
  Final Storage ............         0.024         0.130
  Continuity Error (%) .....        -0.128
  
  
  **************************        Volume        Volume
  Flow Routing Continuity        hectare-m      10^6 ltr
  **************************     ---------     ---------
  Dry Weather Inflow .......         0.758         7.576
  Wet Weather Inflow .......         4.702        47.016
  Groundwater Inflow .......         0.000         0.000
  RDII Inflow ..............         0.000         0.000
  External Inflow ..........         0.000         0.000
  External Outflow .........         1.575        15.755
  Flooding Loss ............         2.981        29.808
  Evaporation Loss .........         0.000         0.000
  Exfiltration Loss ........         0.000         0.000
  Initial Stored Volume ....         0.000         0.000
  Final Stored Volume ......         0.701         7.009
  Continuity Error (%) .....         3.700
  
  
  *************************
  Highest Continuity Errors
  *************************
  Node T2 (12.33%)
  Node T3 (8.07%)
  Node T4 (7.99%)
  Node T5 (6.48%)
  Node T6 (3.50%)
  
  
  ***************************
  Time-Step Critical Elements
  ***************************
  None
  
  
  ********************************
  Highest Flow Instability Indexes
  ********************************
  All links are stable.
  
  
  *************************
  Routing Time Step Summary
  *************************
  Minimum Time Step           :     2.22 sec
  Average Time Step           :     5.00 sec
  Maximum Time Step           :     5.00 sec
  Percent in Steady State     :     0.00
  Average Iterations per Step :     2.18
  Percent Not Converging      :     0.41
  
  
  ***************************
  Subcatchment Runoff Summary
  ***************************
  
  ------------------------------------------------------------------------------------------------------------------------------
                            Total      Total      Total      Total     Imperv       Perv      Total       Total     Peak  Runoff
                           Precip      Runon       Evap      Infil     Runoff     Runoff     Runoff      Runoff   Runoff   Coeff
  Subcatchment                 mm         mm         mm         mm         mm         mm         mm    10^6 ltr      CMS
  ------------------------------------------------------------------------------------------------------------------------------
  SC01                      29.70       0.00       0.00       0.00      29.65       0.00      29.65        9.78     1.36   0.998
  SC02                      24.16       0.00       0.00       0.00      24.08       0.00      24.08        5.48     0.64   0.997
  SC03                      24.20       0.00       0.00       0.00      24.19       0.00      24.19        4.35     0.72   1.000
  SC04                      24.16       0.00       0.00       0.00      23.96       0.00      23.96        1.65     0.17   0.992
  SC05                      29.70       0.00       0.00       0.00      29.63       0.00      29.63        4.62     0.63   0.998
  SC06                      24.90       0.00       0.00       0.00      24.71       0.00      24.71        8.04     0.89   0.992
  SC07                      24.16       0.00       0.00       0.00      23.96       0.00      23.96        1.14     0.12   0.992
  SC08                      24.20       0.00       0.00       0.00      24.12       0.00      24.12        6.75     0.88   0.997
  SC09                      24.90       0.00       0.00       0.00      24.79       0.00      24.79        1.71     0.21   0.995
  SC010                     29.70       0.00       0.00       0.00      29.59       0.00      29.59        3.48     0.45   0.996
  
  
  ******************
  Node Depth Summary
  ******************
  
  ---------------------------------------------------------------------------------
                                 Average  Maximum  Maximum  Time of Max    Reported
                                   Depth    Depth      HGL   Occurrence   Max Depth
  Node                 Type       Meters   Meters   Meters  days hr:min      Meters
  ---------------------------------------------------------------------------------
  J1                   JUNCTION     0.07     0.26    34.26     0  08:56        0.26
  J3                   JUNCTION     0.10     0.14    18.14     0  11:28        0.14
  CSO7                 JUNCTION     0.19     1.20    35.20     0  08:10        1.20
  J5                   JUNCTION     0.06     0.16    32.16     0  09:02        0.16
  CSO9                 JUNCTION     0.25     2.00    42.00     0  08:01        2.00
  J8                   JUNCTION     0.10     0.32    36.32     0  08:52        0.32
  CSO8                 JUNCTION     0.24     2.00    34.00     0  08:06        2.00
  J10                  JUNCTION     0.08     0.31    29.31     0  08:17        0.31
  J13                  JUNCTION     0.06     0.21    29.21     0  08:51        0.21
  J15                  JUNCTION     0.16     0.41    15.41     0  08:58        0.41
  J16                  JUNCTION     0.07     0.27    30.27     0  08:56        0.27
  CSO10                JUNCTION     0.18     1.00    31.00     0  08:06        1.00
  J12                  JUNCTION     0.59     1.11    27.11     0  09:22        1.11
  J4                   JUNCTION     0.15     1.44    34.44     0  08:12        0.75
  J6                   JUNCTION     0.05     0.07    25.07     0  11:03        0.07
  J2                   JUNCTION     0.06     0.08    25.08     0  09:28        0.08
  J19                  JUNCTION     0.13     0.17     8.17     0  08:26        0.17
  J9                   JUNCTION     0.08     0.11    29.11     0  10:12        0.11
  J14                  JUNCTION     0.11     0.15    20.15     0  09:41        0.15
  J17                  JUNCTION     0.06     0.08    20.08     0  10:02        0.08
  J7                   JUNCTION     0.07     0.23    39.23     0  09:24        0.23
  J11                  JUNCTION     0.08     0.30    31.30     0  09:06        0.30
  J18                  JUNCTION     0.05     0.16    29.16     0  09:15        0.16
  Out_to_WWTP          OUTFALL      0.13     0.17     6.17     0  14:38        0.17
  T5                   STORAGE      3.06     5.00    32.00     0  08:41        5.00
  T4                   STORAGE      3.06     5.00    32.00     0  09:08        5.00
  T6                   STORAGE      3.00     5.00    36.00     0  08:30        5.00
  T3                   STORAGE      3.18     5.00    27.00     0  09:17        5.00
  T2                   STORAGE      3.16     5.00    26.00     0  08:57        5.00
  T1                   STORAGE      3.23     5.00    15.00     0  08:25        5.00
  
  
  *******************
  Node Inflow Summary
  *******************
  
  -------------------------------------------------------------------------------------------------
                                  Maximum  Maximum                  Lateral       Total        Flow
                                  Lateral    Total  Time of Max      Inflow      Inflow     Balance
                                   Inflow   Inflow   Occurrence      Volume      Volume       Error
  Node                 Type           CMS      CMS  days hr:min    10^6 ltr    10^6 ltr     Percent
  -------------------------------------------------------------------------------------------------
  J1                   JUNCTION     0.645    0.645     0  08:56        5.72        5.72      -0.021
  J3                   JUNCTION     0.000    0.191     0  13:52           0        10.3       0.354
  CSO7                 JUNCTION     0.128    0.128     0  09:01         1.7         1.7       0.012
  J5                   JUNCTION     0.176    0.248     0  09:01         1.9        3.39       0.001
  CSO9                 JUNCTION     0.219    0.219     0  08:51        2.09        2.09      -0.009
  J8                   JUNCTION     0.913    1.040     0  08:51        9.88        11.8      -0.009
  CSO8                 JUNCTION     0.889    0.889     0  08:46         7.2         7.2      -0.007
  J10                  JUNCTION     0.735    1.212     0  08:16        5.11        11.5      -0.090
  J13                  JUNCTION     0.652    0.652     0  08:51        6.39        6.39      -0.096
  J15                  JUNCTION     0.000    1.620     0  08:56           0        26.3       0.311
  J16                  JUNCTION     1.376    1.376     0  08:56        10.9        10.9      -0.045
  CSO10                JUNCTION     0.450    0.450     0  08:56        3.75        3.75      -0.014
  J12                  JUNCTION     0.000    1.134     0  08:22           0        15.8       2.106
  J4                   JUNCTION     0.000    0.081     0  08:11           0        1.49       0.058
  J6                   JUNCTION     0.000    0.028     0  09:08           0        1.46       0.256
  J2                   JUNCTION     0.000    0.039     0  08:41           0        2.26       0.226
  J19                  JUNCTION     0.000    0.271     0  08:25           0        15.8       0.075
  J9                   JUNCTION     0.000    0.075     0  08:30           0         4.3       0.293
  J14                  JUNCTION     0.000    0.124     0  09:40           0        6.62       0.107
  J17                  JUNCTION     0.000    0.033     0  08:57           0        1.86       0.358
  J7                   JUNCTION     0.000    0.127     0  09:24           0        1.94       0.053
  J11                  JUNCTION     0.000    0.486     0  09:06           0        6.42       0.030
  J18                  JUNCTION     0.000    0.202     0  09:15           0        3.31      -0.002
  Out_to_WWTP          OUTFALL      0.000    0.271     0  08:27           0        15.8       0.000
  T5                   STORAGE      0.000    0.600     0  08:56           0        5.72       6.930
  T4                   STORAGE      0.000    0.237     0  09:02           0        3.39       8.681
  T6                   STORAGE      0.000    0.979     0  08:52           0        11.8       3.631
  T3                   STORAGE      0.000    1.682     0  09:25           0        15.5       8.775
  T2                   STORAGE      0.000    0.605     0  08:51           0        6.39      14.069
  T1                   STORAGE      0.000    1.461     0  08:58           0        26.2       2.709
  
  
  **********************
  Node Surcharge Summary
  **********************
  
  Surcharging occurs when water rises above the top of the highest conduit.
  ---------------------------------------------------------------------
                                               Max. Height   Min. Depth
                                   Hours       Above Crown    Below Rim
  Node                 Type      Surcharged         Meters       Meters
  ---------------------------------------------------------------------
  CSO7                 JUNCTION        2.60          0.945        0.000
  CSO9                 JUNCTION        2.47          1.682        0.000
  CSO8                 JUNCTION        2.39          1.547        0.000
  CSO10                JUNCTION        2.37          0.560        0.000
  J4                   JUNCTION        2.54          1.140        0.560
  
  
  *********************
  Node Flooding Summary
  *********************
  
  Flooding refers to all water that overflows a node, whether it ponds or not.
  --------------------------------------------------------------------------
                                                             Total   Maximum
                                 Maximum   Time of Max       Flood    Ponded
                        Hours       Rate    Occurrence      Volume     Depth
  Node                 Flooded       CMS   days hr:min    10^6 ltr    Meters
  --------------------------------------------------------------------------
  CSO7                    2.37     0.056      0  09:01       0.210     0.000
  CSO9                    1.71     0.091      0  08:51       0.149     0.000
  CSO8                    1.74     0.401      0  08:46       0.780     0.000
  CSO10                   1.93     0.247      0  08:56       0.441     0.000
  T5                      5.35     0.561      0  08:56       2.715     0.000
  T4                      5.42     0.196      0  09:57       1.294     0.000
  T6                      6.29     0.903      0  08:52       6.818     0.000
  T3                      5.56     1.622      0  09:25       5.294     0.000
  T2                      5.76     0.570      0  09:01       2.920     0.000
  T1                      6.96     1.190      0  08:58       9.187     0.000
  
  
  **********************
  Storage Volume Summary
  **********************
  
  --------------------------------------------------------------------------------------------------
                         Average     Avg  Evap Exfil       Maximum     Max    Time of Max    Maximum
                          Volume    Pcnt  Pcnt  Pcnt        Volume    Pcnt     Occurrence    Outflow
  Storage Unit           1000 m3    Full  Loss  Loss       1000 m3    Full    days hr:min        CMS
  --------------------------------------------------------------------------------------------------
  T5                       0.306      61     0     0         0.500     100       0  08:41      0.039
  T4                       0.306      61     0     0         0.500     100       0  09:08      0.028
  T6                       0.360      60     0     0         0.600     100       0  08:30      0.075
  T3                       1.652      64     0     0         2.600     100       0  09:17      0.164
  T2                       0.631      63     0     0         1.000     100       0  08:57      0.033
  T1                       0.453      65     0     0         0.700     100       0  08:25      0.271
  
  
  ***********************
  Outfall Loading Summary
  ***********************
  
  -----------------------------------------------------------
                         Flow       Avg       Max       Total
                         Freq      Flow      Flow      Volume
  Outfall Node           Pcnt       CMS       CMS    10^6 ltr
  -----------------------------------------------------------
  Out_to_WWTP           99.43     0.186     0.271      15.755
  -----------------------------------------------------------
  System                99.43     0.186     0.271      15.755
  
  
  ********************
  Link Flow Summary
  ********************
  
  -----------------------------------------------------------------------------
                                 Maximum  Time of Max   Maximum    Max/    Max/
                                  |Flow|   Occurrence   |Veloc|    Full    Full
  Link                 Type          CMS  days hr:min     m/sec    Flow   Depth
  -----------------------------------------------------------------------------
  C1                   CONDUIT     0.039     0  09:28      1.10    0.01    0.11
  C6                   CONDUIT     0.072     0  09:01      1.29    1.14    0.77
  C2                   CONDUIT     0.028     0  11:03      1.01    0.03    0.18
  C9                   CONDUIT     0.127     0  09:25      1.31    0.43    0.55
  C16                  CONDUIT     0.492     0  08:41      1.79    0.05    0.15
  C3                   CONDUIT     0.124     0  13:52      1.83    0.05    0.14
  C19                  CONDUIT     0.033     0  10:02      0.63    0.01    0.24
  C11                  CONDUIT     0.191     0  11:28      1.72    0.01    0.13
  C20                  CONDUIT     1.268     0  08:56      3.74    0.04    0.17
  C22                  CONDUIT     0.202     0  09:15      1.59    0.09    0.36
  C12                  CONDUIT     0.075     0  10:12      0.67    0.01    0.31
  C17                  CONDUIT     1.078     0  08:17      3.34    0.05    0.35
  C10                  CONDUIT     0.979     0  08:52      0.94    0.10    0.61
  C13                  CONDUIT     1.682     0  09:25      0.85    0.10    0.78
  C18                  CONDUIT     0.605     0  08:51      1.01    0.02    0.55
  C23                  CONDUIT     1.461     0  08:58      1.23    0.16    0.64
  C4                   CONDUIT     0.600     0  08:56      1.15    0.15    0.63
  C7                   CONDUIT     0.237     0  09:02      0.83    0.06    0.58
  C14                  CONDUIT     0.271     0  08:27      2.08    0.02    0.09
  C5                   CONDUIT     0.081     0  08:11      1.59    1.39    1.00
  C8                   CONDUIT     0.127     0  09:24      1.85    1.60    0.86
  C15                  CONDUIT     0.486     0  09:06      3.50    1.55    0.83
  C21                  CONDUIT     0.202     0  09:15      1.87    1.16    0.69
  V4                   ORIFICE     0.028     0  09:08                      0.35
  V5                   ORIFICE     0.039     0  08:41                      1.00
  V1                   ORIFICE     0.271     0  08:25                      1.00
  V6                   ORIFICE     0.075     0  08:30                      0.43
  V3                   ORIFICE     0.124     0  09:40                      0.65
  V2                   ORIFICE     0.033     0  08:57                      0.24
  
  
  ***************************
  Flow Classification Summary
  ***************************
  
  -------------------------------------------------------------------------------------
                      Adjusted    ---------- Fraction of Time in Flow Class ---------- 
                       /Actual         Up    Down  Sub   Sup   Up    Down  Norm  Inlet 
  Conduit               Length    Dry  Dry   Dry   Crit  Crit  Crit  Crit  Ltd   Ctrl  
  -------------------------------------------------------------------------------------
  C1                      1.00   0.00  0.00  0.00  0.35  0.65  0.00  0.00  0.96  0.00
  C6                      1.00   0.00  0.00  0.00  0.12  0.88  0.00  0.00  0.00  0.00
  C2                      1.00   0.00  0.00  0.00  0.70  0.30  0.00  0.00  0.97  0.00
  C9                      1.00   0.00  0.00  0.00  1.00  0.00  0.00  0.00  1.00  0.00
  C16                     1.00   0.00  0.25  0.00  0.31  0.44  0.00  0.00  0.28  0.00
  C3                      1.00   0.00  0.00  0.00  0.03  0.96  0.00  0.00  0.27  0.00
  C19                     1.00   0.00  0.00  0.00  1.00  0.00  0.00  0.00  1.00  0.00
  C11                     1.00   0.00  0.00  0.00  0.22  0.78  0.00  0.00  1.00  0.00
  C20                     1.00   0.00  0.00  0.00  0.69  0.31  0.00  0.00  0.99  0.00
  C22                     1.00   0.00  0.00  0.00  0.86  0.14  0.00  0.00  1.00  0.00
  C12                     1.00   0.00  0.00  0.00  0.79  0.21  0.00  0.00  1.00  0.00
  C17                     1.00   0.00  0.00  0.00  0.86  0.14  0.00  0.00  0.98  0.00
  C10                     1.00   0.00  0.00  0.00  0.83  0.17  0.00  0.00  0.98  0.00
  C13                     1.00   0.00  0.00  0.00  0.81  0.19  0.00  0.00  0.30  0.00
  C18                     1.00   0.00  0.00  0.00  0.94  0.06  0.00  0.00  0.98  0.00
  C23                     1.00   0.00  0.00  0.00  0.77  0.23  0.00  0.00  0.96  0.00
  C4                      1.00   0.00  0.00  0.00  0.82  0.18  0.00  0.00  0.98  0.00
  C7                      1.00   0.00  0.00  0.00  0.91  0.09  0.00  0.00  0.97  0.00
  C14                     1.00   0.00  0.00  0.00  0.00  1.00  0.00  0.00  0.31  0.00
  C5                      1.00   0.00  0.00  0.00  0.92  0.08  0.00  0.00  0.87  0.00
  C8                      1.00   0.00  0.00  0.00  0.33  0.67  0.00  0.00  0.00  0.00
  C15                     1.00   0.25  0.00  0.00  0.00  0.75  0.00  0.00  0.00  0.00
  C21                     1.00   0.00  0.00  0.00  0.01  0.99  0.00  0.00  0.00  0.00
  
  
  *************************
  Conduit Surcharge Summary
  *************************
  
  ----------------------------------------------------------------------------
                                                           Hours        Hours 
                         --------- Hours Full --------   Above Full   Capacity
  Conduit                Both Ends  Upstream  Dnstream   Normal Flow   Limited
  ----------------------------------------------------------------------------
  C6                          0.01      2.54      0.01      2.42         0.01
  C10                         0.01      0.01     15.61      0.01         0.01
  C13                         0.01      0.01     15.24      0.01         0.01
  C18                         0.01      0.01     15.37      0.01         0.01
  C23                         0.01      0.01     15.76      0.01         0.01
  C4                          0.01      0.01     15.88      0.01         0.01
  C7                          0.01      0.01     15.56      0.01         0.01
  C5                          2.54      2.60      2.64      2.57         2.48
  C8                          0.01      2.47      0.01      2.47         0.01
  C15                         0.01      2.39      0.01      2.40         0.01
  C21                         0.01      2.38      0.01      2.32         0.01
  

  Analysis begun on:  Tue Sep 21 13:59:16 2021
  Analysis ended on:  Tue Sep 21 13:59:16 2021
  Total elapsed time: < 1 sec