
  EPA STORM WATER MANAGEMENT MODEL - VERSION 5.1 (Build 5.3.0.dev0)
  --------------------------------------------------------------

  WARNING 09: time series interval greater than recording interval for Rain Gage RG1
  WARNING 09: time series interval greater than recording interval for Rain Gage RG2
  WARNING 09: time series interval greater than recording interval for Rain Gage RG3
  WARNING 09: time series interval greater than recording interval for Rain Gage RG4
  
  *********************************************************
  NOTE: The summary statistics displayed in this report are
  based on results found at every computational time step,  
  not just on results from each reporting time step.
  *********************************************************
  
  ****************
  Analysis Options
  ****************
  Flow Units ............... CMS
  Process Models:
    Rainfall/Runoff ........ YES
    RDII ................... NO
    Snowmelt ............... NO
    Groundwater ............ NO
    Flow Routing ........... YES
    Ponding Allowed ........ YES
    Water Quality .......... NO
  Infiltration Method ...... HORTON
  Flow Routing Method ...... DYNWAVE
  Surcharge Method ......... EXTRAN
  Starting Date ............ 08/28/2015 00:00:00
  Ending Date .............. 08/28/2015 23:40:00
  Antecedent Dry Days ...... 0.0
  Report Time Step ......... 00:01:00
  Wet Time Step ............ 00:01:00
  Dry Time Step ............ 00:01:00
  Routing Time Step ........ 5.00 sec
  Variable Time Step ....... YES
  Maximum Trials ........... 8
  Number of Threads ........ 1
  Head Tolerance ........... 0.001500 m
  
  
  **************************        Volume         Depth
  Runoff Quantity Continuity     hectare-m            mm
  **************************     ---------       -------
  Total Precipitation ......         3.151        17.485
  Evaporation Loss .........         0.000         0.000
  Infiltration Loss ........         0.000         0.000
  Surface Runoff ...........         3.144        17.447
  Final Storage ............         0.015         0.082
  Continuity Error (%) .....        -0.254
  
  
  **************************        Volume        Volume
  Flow Routing Continuity        hectare-m      10^6 ltr
  **************************     ---------     ---------
  Dry Weather Inflow .......         0.758         7.576
  Wet Weather Inflow .......         3.144        31.440
  Groundwater Inflow .......         0.000         0.000
  RDII Inflow ..............         0.000         0.000
  External Inflow ..........         0.000         0.000
  External Outflow .........         1.354        13.539
  Flooding Loss ............         1.810        18.103
  Evaporation Loss .........         0.000         0.000
  Exfiltration Loss ........         0.000         0.000
  Initial Stored Volume ....         0.000         0.000
  Final Stored Volume ......         0.600         6.004
  Continuity Error (%) .....         3.510
  
  
  *************************
  Highest Continuity Errors
  *************************
  Node T2 (19.75%)
  Node T3 (10.69%)
  Node T4 (10.42%)
  Node T6 (4.04%)
  Node T5 (3.80%)
  
  
  ***************************
  Time-Step Critical Elements
  ***************************
  None
  
  
  ********************************
  Highest Flow Instability Indexes
  ********************************
  All links are stable.
  
  
  *************************
  Routing Time Step Summary
  *************************
  Minimum Time Step           :     4.50 sec
  Average Time Step           :     5.00 sec
  Maximum Time Step           :     5.00 sec
  Percent in Steady State     :     0.00
  Average Iterations per Step :     2.08
  Percent Not Converging      :     0.19
  
  
  ***************************
  Subcatchment Runoff Summary
  ***************************
  
  ------------------------------------------------------------------------------------------------------------------------------
                            Total      Total      Total      Total     Imperv       Perv      Total       Total     Peak  Runoff
                           Precip      Runon       Evap      Infil     Runoff     Runoff     Runoff      Runoff   Runoff   Coeff
  Subcatchment                 mm         mm         mm         mm         mm         mm         mm    10^6 ltr      CMS
  ------------------------------------------------------------------------------------------------------------------------------
  SC01                      21.42       0.00       0.00       0.00      21.45       0.00      21.45        7.08     4.16   1.001
  SC02                      10.95       0.00       0.00       0.00      10.90       0.00      10.90        2.48     0.80   0.996
  SC03                      14.83       0.00       0.00       0.00      14.83       0.00      14.83        2.67     1.10   1.000
  SC04                      10.95       0.00       0.00       0.00      10.85       0.00      10.85        0.75     0.18   0.991
  SC05                      21.42       0.00       0.00       0.00      21.43       0.00      21.43        3.34     1.88   1.001
  SC06                      20.26       0.00       0.00       0.00      20.15       0.00      20.15        6.56     1.37   0.994
  SC07                      10.95       0.00       0.00       0.00      10.85       0.00      10.85        0.52     0.13   0.991
  SC08                      14.83       0.00       0.00       0.00      14.78       0.00      14.78        4.14     1.17   0.996
  SC09                      20.26       0.00       0.00       0.00      20.20       0.00      20.20        1.39     0.40   0.997
  SC010                     21.42       0.00       0.00       0.00      21.41       0.00      21.41        2.52     1.27   0.999
  
  
  ******************
  Node Depth Summary
  ******************
  
  ---------------------------------------------------------------------------------
                                 Average  Maximum  Maximum  Time of Max    Reported
                                   Depth    Depth      HGL   Occurrence   Max Depth
  Node                 Type       Meters   Meters   Meters  days hr:min      Meters
  ---------------------------------------------------------------------------------
  J1                   JUNCTION     0.06     0.52    34.52     0  11:11        0.52
  J3                   JUNCTION     0.10     0.14    18.14     0  12:00        0.14
  CSO7                 JUNCTION     0.11     1.20    35.20     0  10:50        1.20
  J5                   JUNCTION     0.05     0.17    32.17     0  11:17        0.17
  CSO9                 JUNCTION     0.16     2.00    42.00     0  10:35        2.00
  J8                   JUNCTION     0.09     0.38    36.38     0  10:42        0.38
  CSO8                 JUNCTION     0.13     2.00    34.00     0  07:56        2.00
  J10                  JUNCTION     0.07     0.35    29.35     0  10:47        0.35
  J13                  JUNCTION     0.04     0.23    29.23     0  11:16        0.23
  J15                  JUNCTION     0.14     0.70    15.70     0  11:18        0.70
  J16                  JUNCTION     0.05     0.47    30.47     0  11:11        0.46
  CSO10                JUNCTION     0.10     1.00    31.00     0  10:40        1.00
  J12                  JUNCTION     0.46     1.06    27.06     0  11:27        1.06
  J4                   JUNCTION     0.10     1.45    34.45     0  10:53        0.75
  J6                   JUNCTION     0.05     0.07    25.07     0  13:51        0.07
  J2                   JUNCTION     0.06     0.08    25.08     0  11:49        0.08
  J19                  JUNCTION     0.12     0.17     8.17     0  10:53        0.17
  J9                   JUNCTION     0.08     0.11    29.11     0  11:38        0.11
  J14                  JUNCTION     0.11     0.15    20.15     0  16:14        0.15
  J17                  JUNCTION     0.05     0.08    20.08     0  13:02        0.08
  J7                   JUNCTION     0.07     0.23    39.23     0  11:30        0.23
  J11                  JUNCTION     0.06     0.30    31.30     0  11:22        0.30
  J18                  JUNCTION     0.04     0.16    29.16     0  11:39        0.16
  Out_to_WWTP          OUTFALL      0.12     0.17     6.17     0  13:14        0.17
  T5                   STORAGE      2.20     5.00    32.00     0  10:59        5.00
  T4                   STORAGE      2.51     5.00    32.00     0  11:39        5.00
  T6                   STORAGE      2.67     5.00    36.00     0  10:11        5.00
  T3                   STORAGE      2.83     5.00    27.00     0  11:21        5.00
  T2                   STORAGE      2.58     5.00    26.00     0  11:30        5.00
  T1                   STORAGE      2.49     5.00    15.00     0  10:51        5.00
  
  
  *******************
  Node Inflow Summary
  *******************
  
  -------------------------------------------------------------------------------------------------
                                  Maximum  Maximum                  Lateral       Total        Flow
                                  Lateral    Total  Time of Max      Inflow      Inflow     Balance
                                   Inflow   Inflow   Occurrence      Volume      Volume       Error
  Node                 Type           CMS      CMS  days hr:min    10^6 ltr    10^6 ltr     Percent
  -------------------------------------------------------------------------------------------------
  J1                   JUNCTION     1.903    1.903     0  11:11        4.44        4.44      -0.021
  J3                   JUNCTION     0.000    0.191     0  13:22           0         9.5       0.353
  CSO7                 JUNCTION     0.139    0.139     0  11:16        1.08        1.08       0.012
  J5                   JUNCTION     0.189    0.261     0  11:16       0.997        2.01      -0.009
  CSO9                 JUNCTION     0.407    0.407     0  10:41        1.78        1.78      -0.004
  J8                   JUNCTION     1.405    1.525     0  10:41        8.39        9.85      -0.018
  CSO8                 JUNCTION     1.179    1.179     0  11:06        4.58        4.58      -0.012
  J10                  JUNCTION     1.117    1.581     0  10:46        3.42        7.28      -0.172
  J13                  JUNCTION     0.820    0.820     0  11:11        3.39        3.39      -0.118
  J15                  JUNCTION     0.000    4.298     0  11:11           0        20.7       0.376
  J16                  JUNCTION     4.178    4.178     0  11:11        8.16        8.16      -0.075
  CSO10                JUNCTION     1.272    1.272     0  11:11        2.79        2.79      -0.040
  J12                  JUNCTION     0.000    1.444     0  10:47           0        11.1       0.889
  J4                   JUNCTION     0.000    0.085     0  10:51           0        1.01       0.045
  J6                   JUNCTION     0.000    0.028     0  11:39           0        1.23       0.279
  J2                   JUNCTION     0.000    0.039     0  10:59           0        1.88       0.204
  J19                  JUNCTION     0.000    0.271     0  10:51           0        13.5       0.078
  J9                   JUNCTION     0.000    0.075     0  10:11           0         3.8       0.282
  J14                  JUNCTION     0.000    0.124     0  11:21           0         6.4       0.109
  J17                  JUNCTION     0.000    0.033     0  12:10           0        1.55       0.380
  J7                   JUNCTION     0.000    0.127     0  11:30           0        1.46       0.063
  J11                  JUNCTION     0.000    0.487     0  11:21           0        3.87       0.070
  J18                  JUNCTION     0.000    0.202     0  11:23           0        1.54      -0.021
  Out_to_WWTP          OUTFALL      0.000    0.271     0  10:53           0        13.5       0.000
  T5                   STORAGE      0.000    1.675     0  11:12           0        4.44       3.951
  T4                   STORAGE      0.000    0.249     0  11:17           0        2.01      11.629
  T6                   STORAGE      0.000    1.392     0  10:42           0        9.85       4.207
  T3                   STORAGE      0.000    1.310     0  10:53           0          11      11.974
  T2                   STORAGE      0.000    0.745     0  11:16           0        3.39      24.607
  T1                   STORAGE      0.000    3.059     0  11:18           0        20.6       2.528
  
  
  **********************
  Node Surcharge Summary
  **********************
  
  Surcharging occurs when water rises above the top of the highest conduit.
  ---------------------------------------------------------------------
                                               Max. Height   Min. Depth
                                   Hours       Above Crown    Below Rim
  Node                 Type      Surcharged         Meters       Meters
  ---------------------------------------------------------------------
  CSO7                 JUNCTION        1.01          0.945        0.000
  CSO9                 JUNCTION        1.13          1.682        0.000
  CSO8                 JUNCTION        0.90          1.547        0.000
  CSO10                JUNCTION        1.12          0.560        0.000
  J4                   JUNCTION        0.97          1.145        0.555
  
  
  *********************
  Node Flooding Summary
  *********************
  
  Flooding refers to all water that overflows a node, whether it ponds or not.
  --------------------------------------------------------------------------
                                                             Total   Maximum
                                 Maximum   Time of Max       Flood    Ponded
                        Hours       Rate    Occurrence      Volume     Depth
  Node                 Flooded       CMS   days hr:min    10^6 ltr    Meters
  --------------------------------------------------------------------------
  CSO7                    0.86     0.067      0  11:16       0.070     0.000
  CSO9                    0.91     0.280      0  10:41       0.315     0.000
  CSO8                    0.68     0.692      0  11:06       0.720     0.000
  CSO10                   1.06     1.069      0  11:11       1.246     0.000
  T5                      1.76     1.634      0  11:12       2.224     0.000
  T4                      2.20     0.147      0  11:39       0.282     0.000
  T6                      4.49     1.317      0  10:42       5.389     0.000
  T3                      2.31     1.025      0  11:30       1.219     0.000
  T2                      2.12     0.343      0  11:37       0.481     0.000
  T1                      2.23     2.789      0  11:18       6.157     0.000
  
  
  **********************
  Storage Volume Summary
  **********************
  
  --------------------------------------------------------------------------------------------------
                         Average     Avg  Evap Exfil       Maximum     Max    Time of Max    Maximum
                          Volume    Pcnt  Pcnt  Pcnt        Volume    Pcnt     Occurrence    Outflow
  Storage Unit           1000 m3    Full  Loss  Loss       1000 m3    Full    days hr:min        CMS
  --------------------------------------------------------------------------------------------------
  T5                       0.220      44     0     0         0.500     100       0  10:59      0.039
  T4                       0.251      50     0     0         0.500     100       0  11:39      0.028
  T6                       0.321      53     0     0         0.600     100       0  10:11      0.075
  T3                       1.473      57     0     0         2.600     100       0  11:21      0.238
  T2                       0.515      52     0     0         1.000     100       0  11:30      0.033
  T1                       0.349      50     0     0         0.700     100       0  10:51      0.271
  
  
  ***********************
  Outfall Loading Summary
  ***********************
  
  -----------------------------------------------------------
                         Flow       Avg       Max       Total
                         Freq      Flow      Flow      Volume
  Outfall Node           Pcnt       CMS       CMS    10^6 ltr
  -----------------------------------------------------------
  Out_to_WWTP           99.43     0.160     0.271      13.539
  -----------------------------------------------------------
  System                99.43     0.160     0.271      13.539
  
  
  ********************
  Link Flow Summary
  ********************
  
  -----------------------------------------------------------------------------
                                 Maximum  Time of Max   Maximum    Max/    Max/
                                  |Flow|   Occurrence   |Veloc|    Full    Full
  Link                 Type          CMS  days hr:min     m/sec    Flow   Depth
  -----------------------------------------------------------------------------
  C1                   CONDUIT     0.039     0  11:49      0.98    0.01    0.11
  C6                   CONDUIT     0.072     0  11:17      1.29    1.14    0.78
  C2                   CONDUIT     0.028     0  13:46      0.97    0.03    0.18
  C9                   CONDUIT     0.127     0  11:30      1.22    0.43    0.61
  C16                  CONDUIT     0.488     0  11:01      1.81    0.05    0.16
  C3                   CONDUIT     0.124     0  13:22      1.82    0.05    0.14
  C19                  CONDUIT     0.033     0  13:02      0.63    0.01    0.38
  C11                  CONDUIT     0.191     0  12:00      1.74    0.01    0.21
  C20                  CONDUIT     3.905     0  11:11      6.12    0.12    0.28
  C22                  CONDUIT     0.202     0  11:23      1.48    0.09    0.54
  C12                  CONDUIT     0.075     0  11:38      0.82    0.01    0.29
  C17                  CONDUIT     1.369     0  10:47      3.67    0.07    0.33
  C10                  CONDUIT     1.392     0  10:42      1.19    0.14    0.63
  C13                  CONDUIT     1.310     0  10:53      1.42    0.08    0.77
  C18                  CONDUIT     0.745     0  11:16      1.01    0.03    0.56
  C23                  CONDUIT     3.059     0  11:18      2.20    0.34    0.73
  C4                   CONDUIT     1.675     0  11:12      2.63    0.41    0.76
  C7                   CONDUIT     0.249     0  11:17      0.83    0.06    0.58
  C14                  CONDUIT     0.271     0  10:53      2.08    0.02    0.09
  C5                   CONDUIT     0.085     0  10:51      1.67    1.45    1.00
  C8                   CONDUIT     0.127     0  11:30      1.84    1.60    0.86
  C15                  CONDUIT     0.487     0  11:21      3.65    1.55    0.83
  C21                  CONDUIT     0.202     0  11:23      1.97    1.16    0.69
  V4                   ORIFICE     0.028     0  11:39                      0.35
  V5                   ORIFICE     0.039     0  10:59                      1.00
  V1                   ORIFICE     0.271     0  10:51                      1.00
  V6                   ORIFICE     0.075     0  10:11                      0.43
  V3                   ORIFICE     0.124     0  11:21                      0.65
  V2                   ORIFICE     0.033     0  12:10                      0.24
  
  
  ***************************
  Flow Classification Summary
  ***************************
  
  -------------------------------------------------------------------------------------
                      Adjusted    ---------- Fraction of Time in Flow Class ---------- 
                       /Actual         Up    Down  Sub   Sup   Up    Down  Norm  Inlet 
  Conduit               Length    Dry  Dry   Dry   Crit  Crit  Crit  Crit  Ltd   Ctrl  
  -------------------------------------------------------------------------------------
  C1                      1.00   0.00  0.00  0.00  0.58  0.42  0.00  0.00  0.96  0.00
  C6                      1.00   0.00  0.00  0.00  0.05  0.95  0.00  0.00  0.00  0.00
  C2                      1.00   0.00  0.00  0.00  0.75  0.25  0.00  0.00  0.97  0.00
  C9                      1.00   0.00  0.00  0.00  1.00  0.00  0.00  0.00  1.00  0.00
  C16                     1.00   0.00  0.25  0.00  0.35  0.40  0.00  0.00  0.31  0.00
  C3                      1.00   0.00  0.00  0.00  0.03  0.96  0.00  0.00  0.23  0.00
  C19                     1.00   0.00  0.00  0.00  1.00  0.00  0.00  0.00  1.00  0.00
  C11                     1.00   0.00  0.00  0.00  0.12  0.88  0.00  0.00  1.00  0.00
  C20                     1.00   0.00  0.00  0.00  0.78  0.22  0.00  0.00  0.99  0.00
  C22                     1.00   0.00  0.00  0.00  0.99  0.01  0.00  0.00  1.00  0.00
  C12                     1.00   0.00  0.00  0.00  0.79  0.21  0.00  0.00  1.00  0.00
  C17                     1.00   0.00  0.00  0.00  0.77  0.23  0.00  0.00  0.98  0.00
  C10                     1.00   0.00  0.00  0.00  0.83  0.17  0.00  0.00  0.98  0.00
  C13                     1.00   0.00  0.00  0.00  0.81  0.19  0.00  0.00  0.39  0.00
  C18                     1.00   0.00  0.00  0.00  0.94  0.06  0.00  0.00  0.98  0.00
  C23                     1.00   0.00  0.00  0.00  0.77  0.23  0.00  0.00  0.95  0.00
  C4                      1.00   0.00  0.00  0.00  0.82  0.18  0.00  0.00  0.97  0.00
  C7                      1.00   0.00  0.00  0.00  0.91  0.09  0.00  0.00  0.97  0.00
  C14                     1.00   0.00  0.00  0.00  0.00  1.00  0.00  0.00  0.26  0.00
  C5                      1.00   0.00  0.00  0.00  0.94  0.06  0.00  0.00  0.94  0.00
  C8                      1.00   0.00  0.00  0.00  0.28  0.72  0.00  0.00  0.01  0.00
  C15                     1.00   0.25  0.00  0.00  0.00  0.74  0.00  0.00  0.01  0.00
  C21                     1.00   0.00  0.00  0.00  0.00  1.00  0.00  0.00  0.00  0.00
  
  
  *************************
  Conduit Surcharge Summary
  *************************
  
  ----------------------------------------------------------------------------
                                                           Hours        Hours 
                         --------- Hours Full --------   Above Full   Capacity
  Conduit                Both Ends  Upstream  Dnstream   Normal Flow   Limited
  ----------------------------------------------------------------------------
  C6                          0.01      0.97      0.01      0.86         0.01
  C10                         0.01      0.01     14.77      0.01         0.01
  C13                         0.01      0.01     13.89      0.01         0.01
  C18                         0.01      0.01     12.80      0.01         0.01
  C23                         0.01      0.01     14.05      0.01         0.01
  C4                          0.01      0.01     14.62      0.01         0.01
  C7                          0.01      0.01     14.29      0.01         0.01
  C5                          0.96      1.01      1.06      1.03         0.93
  C8                          0.01      1.13      0.01      1.12         0.01
  C15                         0.01      0.90      0.01      0.93         0.01
  C21                         0.01      1.12      0.01      1.10         0.01
  

  Analysis begun on:  Tue Sep 21 14:02:14 2021
  Analysis ended on:  Tue Sep 21 14:02:15 2021
  Total elapsed time: 00:00:01