
  EPA STORM WATER MANAGEMENT MODEL - VERSION 5.1 (Build 5.3.0.dev0)
  --------------------------------------------------------------

  WARNING 09: time series interval greater than recording interval for Rain Gage RG1
  WARNING 09: time series interval greater than recording interval for Rain Gage RG2
  WARNING 09: time series interval greater than recording interval for Rain Gage RG3
  WARNING 09: time series interval greater than recording interval for Rain Gage RG4
  
  *********************************************************
  NOTE: The summary statistics displayed in this report are
  based on results found at every computational time step,  
  not just on results from each reporting time step.
  *********************************************************
  
  ****************
  Analysis Options
  ****************
  Flow Units ............... CMS
  Process Models:
    Rainfall/Runoff ........ YES
    RDII ................... NO
    Snowmelt ............... NO
    Groundwater ............ NO
    Flow Routing ........... YES
    Ponding Allowed ........ YES
    Water Quality .......... NO
  Infiltration Method ...... HORTON
  Flow Routing Method ...... DYNWAVE
  Surcharge Method ......... EXTRAN
  Starting Date ............ 08/28/2015 00:00:00
  Ending Date .............. 08/28/2015 23:40:00
  Antecedent Dry Days ...... 0.0
  Report Time Step ......... 00:01:00
  Wet Time Step ............ 00:01:00
  Dry Time Step ............ 00:01:00
  Routing Time Step ........ 5.00 sec
  Variable Time Step ....... YES
  Maximum Trials ........... 8
  Number of Threads ........ 1
  Head Tolerance ........... 0.001500 m
  
  
  **************************        Volume         Depth
  Runoff Quantity Continuity     hectare-m            mm
  **************************     ---------       -------
  Total Precipitation ......         2.925        16.233
  Evaporation Loss .........         0.000         0.000
  Infiltration Loss ........         0.000         0.000
  Surface Runoff ...........         2.882        15.993
  Final Storage ............         0.054         0.299
  Continuity Error (%) .....        -0.368
  
  
  **************************        Volume        Volume
  Flow Routing Continuity        hectare-m      10^6 ltr
  **************************     ---------     ---------
  Dry Weather Inflow .......         0.758         7.576
  Wet Weather Inflow .......         2.882        28.817
  Groundwater Inflow .......         0.000         0.000
  RDII Inflow ..............         0.000         0.000
  External Inflow ..........         0.000         0.000
  External Outflow .........         1.054        10.536
  Flooding Loss ............         1.455        14.551
  Evaporation Loss .........         0.000         0.000
  Exfiltration Loss ........         0.000         0.000
  Initial Stored Volume ....         0.000         0.000
  Final Stored Volume ......         0.847         8.471
  Continuity Error (%) .....         7.788
  
  
  *************************
  Highest Continuity Errors
  *************************
  Node T2 (23.43%)
  Node T4 (16.51%)
  Node T3 (13.49%)
  Node T5 (12.72%)
  Node T6 (7.99%)
  
  
  ***************************
  Time-Step Critical Elements
  ***************************
  None
  
  
  ********************************
  Highest Flow Instability Indexes
  ********************************
  All links are stable.
  
  
  *************************
  Routing Time Step Summary
  *************************
  Minimum Time Step           :     4.50 sec
  Average Time Step           :     5.00 sec
  Maximum Time Step           :     5.00 sec
  Percent in Steady State     :     0.00
  Average Iterations per Step :     2.15
  Percent Not Converging      :     0.49
  
  
  ***************************
  Subcatchment Runoff Summary
  ***************************
  
  ------------------------------------------------------------------------------------------------------------------------------
                            Total      Total      Total      Total     Imperv       Perv      Total       Total     Peak  Runoff
                           Precip      Runon       Evap      Infil     Runoff     Runoff     Runoff      Runoff   Runoff   Coeff
  Subcatchment                 mm         mm         mm         mm         mm         mm         mm    10^6 ltr      CMS
  ------------------------------------------------------------------------------------------------------------------------------
  SC01                      14.74       0.00       0.00       0.00      14.64       0.00      14.64        4.83     3.50   0.993
  SC02                      13.31       0.00       0.00       0.00      13.17       0.00      13.17        3.00     2.31   0.990
  SC03                      16.04       0.00       0.00       0.00      16.04       0.00      16.04        2.89     2.31   1.000
  SC04                      13.31       0.00       0.00       0.00      12.84       0.00      12.84        0.89     0.33   0.965
  SC05                      14.74       0.00       0.00       0.00      14.61       0.00      14.61        2.28     1.58   0.991
  SC06                      21.29       0.00       0.00       0.00      20.71       0.00      20.71        6.74     3.16   0.973
  SC07                      13.31       0.00       0.00       0.00      12.84       0.00      12.84        0.61     0.23   0.965
  SC08                      16.04       0.00       0.00       0.00      15.83       0.00      15.83        4.43     2.24   0.987
  SC09                      21.29       0.00       0.00       0.00      21.03       0.00      21.03        1.45     0.95   0.988
  SC010                     14.74       0.00       0.00       0.00      14.53       0.00      14.53        1.71     1.05   0.986
  
  
  ******************
  Node Depth Summary
  ******************
  
  ---------------------------------------------------------------------------------
                                 Average  Maximum  Maximum  Time of Max    Reported
                                   Depth    Depth      HGL   Occurrence   Max Depth
  Node                 Type       Meters   Meters   Meters  days hr:min      Meters
  ---------------------------------------------------------------------------------
  J1                   JUNCTION     0.05     0.42    34.42     0  15:46        0.40
  J3                   JUNCTION     0.08     0.13    18.13     0  22:07        0.13
  CSO7                 JUNCTION     0.10     1.20    35.20     0  15:40        1.20
  J5                   JUNCTION     0.05     0.20    32.20     0  15:46        0.20
  CSO9                 JUNCTION     0.15     2.00    42.00     0  15:20        2.00
  J8                   JUNCTION     0.09     0.60    36.60     0  15:32        0.59
  CSO8                 JUNCTION     0.13     2.00    34.00     0  15:25        2.00
  J10                  JUNCTION     0.07     0.46    29.46     0  15:32        0.46
  J13                  JUNCTION     0.05     0.38    29.38     0  15:41        0.37
  J15                  JUNCTION     0.12     0.58    15.58     0  15:48        0.58
  J16                  JUNCTION     0.05     0.43    30.43     0  15:46        0.42
  CSO10                JUNCTION     0.09     1.00    31.00     0  15:35        1.00
  J12                  JUNCTION     0.23     1.05    27.05     0  21:34        1.05
  J4                   JUNCTION     0.10     1.44    34.44     0  21:41        0.75
  J6                   JUNCTION     0.05     0.07    25.07     0  21:40        0.07
  J2                   JUNCTION     0.05     0.08    25.08     0  22:16        0.08
  J19                  JUNCTION     0.11     0.17     8.17     0  15:49        0.17
  J9                   JUNCTION     0.07     0.11    29.11     0  16:57        0.11
  J14                  JUNCTION     0.08     0.15    20.15     0  21:51        0.15
  J17                  JUNCTION     0.04     0.08    20.08     0  21:53        0.08
  J7                   JUNCTION     0.06     0.23    39.23     0  15:51        0.23
  J11                  JUNCTION     0.06     0.30    31.30     0  15:49        0.30
  J18                  JUNCTION     0.04     0.16    29.16     0  16:03        0.16
  Out_to_WWTP          OUTFALL      0.11     0.17     6.17     0  22:55        0.17
  T5                   STORAGE      1.87     5.00    32.00     0  15:49        5.00
  T4                   STORAGE      1.77     5.00    32.00     0  21:37        5.00
  T6                   STORAGE      2.06     5.00    36.00     0  15:32        5.00
  T3                   STORAGE      1.77     5.00    27.00     0  20:54        5.00
  T2                   STORAGE      1.87     5.00    26.00     0  16:36        5.00
  T1                   STORAGE      1.76     5.00    15.00     0  15:48        5.00
  
  
  *******************
  Node Inflow Summary
  *******************
  
  -------------------------------------------------------------------------------------------------
                                  Maximum  Maximum                  Lateral       Total        Flow
                                  Lateral    Total  Time of Max      Inflow      Inflow     Balance
                                   Inflow   Inflow   Occurrence      Volume      Volume       Error
  Node                 Type           CMS      CMS  days hr:min    10^6 ltr    10^6 ltr     Percent
  -------------------------------------------------------------------------------------------------
  J1                   JUNCTION     1.595    1.595     0  15:46        3.37        3.37       0.012
  J3                   JUNCTION     0.000    0.179     0  21:51           0        6.52       0.559
  CSO7                 JUNCTION     0.233    0.233     0  15:41        1.18        1.18       0.022
  J5                   JUNCTION     0.329    0.392     0  15:46        1.13        2.19       0.108
  CSO9                 JUNCTION     0.952    0.952     0  15:26        1.83        1.83      -0.012
  J8                   JUNCTION     3.186    3.309     0  15:31        8.57        9.88       0.084
  CSO8                 JUNCTION     2.246    2.246     0  15:31        4.88        4.88      -0.021
  J10                  JUNCTION     2.317    2.766     0  15:31        3.64        7.54      -0.085
  J13                  JUNCTION     2.323    2.323     0  15:41        3.91        3.91      -0.072
  J15                  JUNCTION     0.000    3.572     0  15:46           0          15       0.602
  J16                  JUNCTION     3.513    3.513     0  15:46        5.91        5.91      -0.107
  CSO10                JUNCTION     1.052    1.052     0  15:46        1.98        1.98      -0.025
  J12                  JUNCTION     0.000    2.375     0  15:32           0        10.9       7.709
  J4                   JUNCTION     0.000    0.085     0  15:43           0        1.06       0.104
  J6                   JUNCTION     0.000    0.028     0  21:37           0        1.03       0.258
  J2                   JUNCTION     0.000    0.039     0  15:49           0        1.65       0.335
  J19                  JUNCTION     0.000    0.271     0  15:48           0        10.5       0.117
  J9                   JUNCTION     0.000    0.075     0  15:32           0        3.37       0.527
  J14                  JUNCTION     0.000    0.124     0  21:50           0        3.86       0.192
  J17                  JUNCTION     0.000    0.033     0  21:00           0        1.12       0.591
  J7                   JUNCTION     0.000    0.127     0  15:51           0        1.31       0.195
  J11                  JUNCTION     0.000    0.487     0  15:48           0        3.91       0.278
  J18                  JUNCTION     0.000    0.202     0  16:03           0        1.45       0.107
  Out_to_WWTP          OUTFALL      0.000    0.271     0  15:49           0        10.5       0.000
  T5                   STORAGE      0.000    1.477     0  15:46           0        3.37      14.575
  T4                   STORAGE      0.000    0.373     0  15:46           0        2.19      19.770
  T6                   STORAGE      0.000    3.033     0  15:31           0        9.87       8.687
  T3                   STORAGE      0.000    2.029     0  15:33           0        10.1      15.587
  T2                   STORAGE      0.000    2.100     0  15:41           0        3.91      30.600
  T1                   STORAGE      0.000    2.832     0  15:47           0        14.9       5.333
  
  
  **********************
  Node Surcharge Summary
  **********************
  
  Surcharging occurs when water rises above the top of the highest conduit.
  ---------------------------------------------------------------------
                                               Max. Height   Min. Depth
                                   Hours       Above Crown    Below Rim
  Node                 Type      Surcharged         Meters       Meters
  ---------------------------------------------------------------------
  CSO7                 JUNCTION        0.83          0.945        0.000
  CSO9                 JUNCTION        1.23          1.682        0.000
  CSO8                 JUNCTION        1.08          1.547        0.000
  CSO10                JUNCTION        0.58          0.560        0.000
  J4                   JUNCTION        0.73          1.144        0.556
  
  
  *********************
  Node Flooding Summary
  *********************
  
  Flooding refers to all water that overflows a node, whether it ponds or not.
  --------------------------------------------------------------------------
                                                             Total   Maximum
                                 Maximum   Time of Max       Flood    Ponded
                        Hours       Rate    Occurrence      Volume     Depth
  Node                 Flooded       CMS   days hr:min    10^6 ltr    Meters
  --------------------------------------------------------------------------
  CSO7                    0.51     0.154      0  15:41       0.115     0.000
  CSO9                    0.78     0.827      0  15:26       0.525     0.000
  CSO8                    0.51     1.761      0  15:31       0.968     0.000
  CSO10                   0.48     0.850      0  15:46       0.533     0.000
  T5                      1.73     0.925      0  15:49       0.846     0.000
  T4                      1.66     0.153      0  21:43       0.303     0.000
  T6                      5.23     2.881      0  15:32       5.128     0.000
  T3                      1.46     1.194      0  21:37       2.321     0.000
  T2                      2.43     0.466      0  21:37       0.906     0.000
  T1                      2.23     2.509      0  15:48       2.906     0.000
  
  
  **********************
  Storage Volume Summary
  **********************
  
  --------------------------------------------------------------------------------------------------
                         Average     Avg  Evap Exfil       Maximum     Max    Time of Max    Maximum
                          Volume    Pcnt  Pcnt  Pcnt        Volume    Pcnt     Occurrence    Outflow
  Storage Unit           1000 m3    Full  Loss  Loss       1000 m3    Full    days hr:min        CMS
  --------------------------------------------------------------------------------------------------
  T5                       0.187      37     0     0         0.500     100       0  15:49      0.039
  T4                       0.177      35     0     0         0.500     100       0  21:37      0.028
  T6                       0.247      41     0     0         0.600     100       0  15:32      0.075
  T3                       0.918      35     0     0         2.600     100       0  20:54      0.124
  T2                       0.374      37     0     0         1.000     100       0  16:36      0.033
  T1                       0.246      35     0     0         0.700     100       0  15:48      0.271
  
  
  ***********************
  Outfall Loading Summary
  ***********************
  
  -----------------------------------------------------------
                         Flow       Avg       Max       Total
                         Freq      Flow      Flow      Volume
  Outfall Node           Pcnt       CMS       CMS    10^6 ltr
  -----------------------------------------------------------
  Out_to_WWTP           99.43     0.124     0.271      10.536
  -----------------------------------------------------------
  System                99.43     0.124     0.271      10.536
  
  
  ********************
  Link Flow Summary
  ********************
  
  -----------------------------------------------------------------------------
                                 Maximum  Time of Max   Maximum    Max/    Max/
                                  |Flow|   Occurrence   |Veloc|    Full    Full
  Link                 Type          CMS  days hr:min     m/sec    Flow   Depth
  -----------------------------------------------------------------------------
  C1                   CONDUIT     0.039     0  16:40      1.02    0.01    0.11
  C6                   CONDUIT     0.074     0  15:46      1.29    1.17    0.84
  C2                   CONDUIT     0.028     0  21:40      1.00    0.03    0.17
  C9                   CONDUIT     0.127     0  15:51      1.30    0.43    0.73
  C16                  CONDUIT     0.486     0  15:42      1.84    0.05    0.19
  C3                   CONDUIT     0.124     0  21:52      1.83    0.05    0.14
  C19                  CONDUIT     0.033     0  21:53      0.69    0.01    0.31
  C11                  CONDUIT     0.178     0  22:07      1.68    0.01    0.17
  C20                  CONDUIT     3.231     0  15:46      6.82    0.10    0.24
  C22                  CONDUIT     0.202     0  16:03      1.52    0.09    0.46
  C12                  CONDUIT     0.075     0  16:57      1.01    0.01    0.29
  C17                  CONDUIT     2.313     0  15:32      4.63    0.11    0.33
  C10                  CONDUIT     3.033     0  15:31      2.31    0.31    0.70
  C13                  CONDUIT     2.029     0  15:33      1.33    0.12    0.76
  C18                  CONDUIT     2.100     0  15:41      1.63    0.08    0.58
  C23                  CONDUIT     2.832     0  15:47      2.17    0.31    0.69
  C4                   CONDUIT     1.477     0  15:46      2.49    0.36    0.71
  C7                   CONDUIT     0.373     0  15:46      0.83    0.09    0.60
  C14                  CONDUIT     0.271     0  15:49      2.08    0.02    0.09
  C5                   CONDUIT     0.085     0  15:43      1.70    1.46    1.00
  C8                   CONDUIT     0.127     0  15:51      2.12    1.60    0.86
  C15                  CONDUIT     0.487     0  15:48      3.81    1.55    0.83
  C21                  CONDUIT     0.202     0  16:03      1.97    1.16    0.69
  V4                   ORIFICE     0.028     0  21:37                      0.35
  V5                   ORIFICE     0.039     0  15:49                      1.00
  V1                   ORIFICE     0.271     0  15:48                      1.00
  V6                   ORIFICE     0.075     0  15:32                      0.43
  V3                   ORIFICE     0.124     0  21:50                      0.65
  V2                   ORIFICE     0.033     0  21:00                      0.24
  
  
  ***************************
  Flow Classification Summary
  ***************************
  
  -------------------------------------------------------------------------------------
                      Adjusted    ---------- Fraction of Time in Flow Class ---------- 
                       /Actual         Up    Down  Sub   Sup   Up    Down  Norm  Inlet 
  Conduit               Length    Dry  Dry   Dry   Crit  Crit  Crit  Crit  Ltd   Ctrl  
  -------------------------------------------------------------------------------------
  C1                      1.00   0.00  0.00  0.00  0.34  0.66  0.00  0.00  0.96  0.00
  C6                      1.00   0.00  0.00  0.00  0.05  0.95  0.00  0.00  0.00  0.00
  C2                      1.00   0.00  0.00  0.00  0.55  0.45  0.00  0.00  0.97  0.00
  C9                      1.00   0.00  0.00  0.00  1.00  0.00  0.00  0.00  1.00  0.00
  C16                     1.00   0.00  0.25  0.00  0.48  0.26  0.00  0.00  0.45  0.00
  C3                      1.00   0.00  0.00  0.00  0.03  0.96  0.00  0.00  0.45  0.00
  C19                     1.00   0.00  0.00  0.00  1.00  0.00  0.00  0.00  1.00  0.00
  C11                     1.00   0.00  0.00  0.00  0.09  0.91  0.00  0.00  1.00  0.00
  C20                     1.00   0.00  0.00  0.00  0.81  0.19  0.00  0.00  0.99  0.00
  C22                     1.00   0.00  0.00  0.00  0.97  0.03  0.00  0.00  1.00  0.00
  C12                     1.00   0.00  0.00  0.00  0.44  0.56  0.00  0.00  1.00  0.00
  C17                     1.00   0.00  0.00  0.00  0.52  0.48  0.00  0.00  0.98  0.00
  C10                     1.00   0.00  0.00  0.00  0.83  0.17  0.00  0.00  0.97  0.00
  C13                     1.00   0.00  0.00  0.00  0.81  0.19  0.00  0.00  0.64  0.00
  C18                     1.00   0.00  0.00  0.00  0.94  0.06  0.00  0.00  0.98  0.00
  C23                     1.00   0.00  0.00  0.00  0.77  0.23  0.00  0.00  0.96  0.00
  C4                      1.00   0.00  0.00  0.00  0.82  0.18  0.00  0.00  0.98  0.00
  C7                      1.00   0.00  0.00  0.00  0.91  0.09  0.00  0.00  0.97  0.00
  C14                     1.00   0.00  0.00  0.00  0.00  1.00  0.00  0.00  0.47  0.00
  C5                      1.00   0.00  0.00  0.00  0.93  0.07  0.00  0.00  0.95  0.00
  C8                      1.00   0.00  0.00  0.00  0.20  0.80  0.00  0.00  0.00  0.00
  C15                     1.00   0.25  0.00  0.00  0.00  0.75  0.00  0.00  0.00  0.00
  C21                     1.00   0.00  0.00  0.00  0.00  1.00  0.00  0.00  0.00  0.00
  
  
  *************************
  Conduit Surcharge Summary
  *************************
  
  ----------------------------------------------------------------------------
                                                           Hours        Hours 
                         --------- Hours Full --------   Above Full   Capacity
  Conduit                Both Ends  Upstream  Dnstream   Normal Flow   Limited
  ----------------------------------------------------------------------------
  C6                          0.01      0.73      0.01      0.53         0.01
  C9                          0.01      0.01      0.13      0.01         0.01
  C10                         0.01      0.01      8.26      0.01         0.01
  C13                         0.01      0.01      8.05      0.01         0.01
  C18                         0.01      0.01      7.93      0.01         0.01
  C23                         0.01      0.01      8.01      0.01         0.01
  C4                          0.01      0.01     10.00      0.01         0.01
  C7                          0.01      0.01      9.56      0.01         0.01
  C5                          0.75      0.83      0.93      0.79         0.67
  C8                          0.01      1.23      0.01      1.26         0.01
  C15                         0.01      1.08      0.01      1.20         0.01
  C21                         0.01      0.58      0.01      0.55         0.01
  

  Analysis begun on:  Tue Sep 21 14:06:11 2021
  Analysis ended on:  Tue Sep 21 14:06:11 2021
  Total elapsed time: < 1 sec