
  EPA STORM WATER MANAGEMENT MODEL - VERSION 5.1 (Build 5.3.0.dev0)
  --------------------------------------------------------------

  WARNING 09: time series interval greater than recording interval for Rain Gage RG1
  WARNING 09: time series interval greater than recording interval for Rain Gage RG2
  WARNING 09: time series interval greater than recording interval for Rain Gage RG3
  WARNING 09: time series interval greater than recording interval for Rain Gage RG4
  
  *********************************************************
  NOTE: The summary statistics displayed in this report are
  based on results found at every computational time step,  
  not just on results from each reporting time step.
  *********************************************************
  
  ****************
  Analysis Options
  ****************
  Flow Units ............... CMS
  Process Models:
    Rainfall/Runoff ........ YES
    RDII ................... NO
    Snowmelt ............... NO
    Groundwater ............ NO
    Flow Routing ........... YES
    Ponding Allowed ........ YES
    Water Quality .......... NO
  Infiltration Method ...... HORTON
  Flow Routing Method ...... DYNWAVE
  Surcharge Method ......... EXTRAN
  Starting Date ............ 08/28/2015 00:00:00
  Ending Date .............. 08/28/2015 23:40:00
  Antecedent Dry Days ...... 0.0
  Report Time Step ......... 00:01:00
  Wet Time Step ............ 00:01:00
  Dry Time Step ............ 00:01:00
  Routing Time Step ........ 5.00 sec
  Variable Time Step ....... YES
  Maximum Trials ........... 8
  Number of Threads ........ 1
  Head Tolerance ........... 0.001500 m
  
  
  **************************        Volume         Depth
  Runoff Quantity Continuity     hectare-m            mm
  **************************     ---------       -------
  Total Precipitation ......         9.173        50.904
  Evaporation Loss .........         0.000         0.000
  Infiltration Loss ........         0.000         0.000
  Surface Runoff ...........         8.937        49.593
  Final Storage ............         0.250         1.390
  Continuity Error (%) .....        -0.156
  
  
  **************************        Volume        Volume
  Flow Routing Continuity        hectare-m      10^6 ltr
  **************************     ---------     ---------
  Dry Weather Inflow .......         0.758         7.576
  Wet Weather Inflow .......         8.932        89.326
  Groundwater Inflow .......         0.000         0.000
  RDII Inflow ..............         0.000         0.000
  External Inflow ..........         0.000         0.000
  External Outflow .........         2.140        21.403
  Flooding Loss ............         6.347        63.467
  Evaporation Loss .........         0.000         0.000
  Exfiltration Loss ........         0.000         0.000
  Initial Stored Volume ....         0.000         0.000
  Final Stored Volume ......         0.894         8.941
  Continuity Error (%) .....         3.189
  
  
  *************************
  Highest Continuity Errors
  *************************
  Node T2 (8.82%)
  Node T4 (6.45%)
  Node T5 (5.57%)
  Node T3 (4.75%)
  Node T6 (3.93%)
  
  
  ***************************
  Time-Step Critical Elements
  ***************************
  None
  
  
  ********************************
  Highest Flow Instability Indexes
  ********************************
  Link C15 (3)
  Link C20 (3)
  Link C21 (2)
  Link C4 (2)
  Link C18 (2)
  
  
  *************************
  Routing Time Step Summary
  *************************
  Minimum Time Step           :     2.50 sec
  Average Time Step           :     5.00 sec
  Maximum Time Step           :     5.00 sec
  Percent in Steady State     :     0.00
  Average Iterations per Step :     2.75
  Percent Not Converging      :     2.46
  
  
  ***************************
  Subcatchment Runoff Summary
  ***************************
  
  ------------------------------------------------------------------------------------------------------------------------------
                            Total      Total      Total      Total     Imperv       Perv      Total       Total     Peak  Runoff
                           Precip      Runon       Evap      Infil     Runoff     Runoff     Runoff      Runoff   Runoff   Coeff
  Subcatchment                 mm         mm         mm         mm         mm         mm         mm    10^6 ltr      CMS
  ------------------------------------------------------------------------------------------------------------------------------
  SC01                      51.02       0.00       0.00       0.00      50.29       0.00      50.29       16.59     1.80   0.986
  SC02                      44.07       0.00       0.00       0.00      43.25       0.00      43.25        9.84     0.80   0.981
  SC03                      54.64       0.00       0.00       0.00      54.12       0.00      54.12        9.74     1.94   0.990
  SC04                      44.07       0.00       0.00       0.00      42.37       0.00      42.37        2.92     0.17   0.962
  SC05                      51.02       0.00       0.00       0.00      50.20       0.00      50.20        7.83     0.82   0.984
  SC06                      52.33       0.00       0.00       0.00      49.55       0.00      49.55       16.13     1.18   0.947
  SC07                      44.07       0.00       0.00       0.00      42.38       0.00      42.38        2.01     0.12   0.962
  SC08                      54.64       0.00       0.00       0.00      53.37       0.00      53.37       14.94     2.03   0.977
  SC09                      52.33       0.00       0.00       0.00      50.42       0.00      50.42        3.48     0.32   0.964
  SC010                     51.02       0.00       0.00       0.00      49.96       0.00      49.96        5.87     0.56   0.979
  
  
  ******************
  Node Depth Summary
  ******************
  
  ---------------------------------------------------------------------------------
                                 Average  Maximum  Maximum  Time of Max    Reported
                                   Depth    Depth      HGL   Occurrence   Max Depth
  Node                 Type       Meters   Meters   Meters  days hr:min      Meters
  ---------------------------------------------------------------------------------
  J1                   JUNCTION     0.10     0.29    34.29     0  06:56        0.29
  J3                   JUNCTION     0.13     0.14    18.14     0  08:09        0.14
  CSO7                 JUNCTION     0.21     1.20    35.20     0  04:21        1.20
  J5                   JUNCTION     0.08     0.16    32.16     0  04:31        0.16
  CSO9                 JUNCTION     0.37     2.00    42.00     0  04:50        2.00
  J8                   JUNCTION     0.15     0.36    36.36     0  14:27        0.36
  CSO8                 JUNCTION     0.41     2.00    34.00     0  02:50        2.00
  J10                  JUNCTION     0.15     0.42    29.42     0  14:11        0.42
  J13                  JUNCTION     0.09     0.23    29.23     0  04:26        0.23
  J15                  JUNCTION     0.22     0.46    15.46     0  07:03        0.46
  J16                  JUNCTION     0.10     0.31    30.31     0  06:56        0.31
  CSO10                JUNCTION     0.24     1.00    31.00     0  04:26        1.00
  J12                  JUNCTION     0.83     1.12    27.12     0  14:08        1.12
  J4                   JUNCTION     0.19     1.48    34.48     0  04:23        1.00
  J6                   JUNCTION     0.06     0.07    25.07     0  05:43        0.07
  J2                   JUNCTION     0.07     0.08    25.08     0  11:52        0.08
  J19                  JUNCTION     0.16     0.17     8.17     0  21:49        0.17
  J9                   JUNCTION     0.10     0.11    29.11     0  05:54        0.11
  J14                  JUNCTION     0.14     0.15    20.15     0  04:39        0.15
  J17                  JUNCTION     0.07     0.08    20.08     0  23:39        0.08
  J7                   JUNCTION     0.12     0.23    39.23     0  14:44        0.23
  J11                  JUNCTION     0.15     0.30    31.30     0  14:31        0.30
  J18                  JUNCTION     0.09     0.16    29.16     0  07:22        0.16
  Out_to_WWTP          OUTFALL      0.16     0.17     6.17     0  10:06        0.17
  T5                   STORAGE      4.33     5.00    32.00     0  03:54        5.00
  T4                   STORAGE      4.30     5.00    32.00     0  04:26        5.00
  T6                   STORAGE      4.32     5.00    36.00     0  04:10        5.00
  T3                   STORAGE      4.36     5.00    27.00     0  04:38        5.00
  T2                   STORAGE      4.34     5.00    26.00     0  04:25        5.00
  T1                   STORAGE      4.52     5.00    15.00     0  02:52        5.00
  
  
  *******************
  Node Inflow Summary
  *******************
  
  -------------------------------------------------------------------------------------------------
                                  Maximum  Maximum                  Lateral       Total        Flow
                                  Lateral    Total  Time of Max      Inflow      Inflow     Balance
                                   Inflow   Inflow   Occurrence      Volume      Volume       Error
  Node                 Type           CMS      CMS  days hr:min    10^6 ltr    10^6 ltr     Percent
  -------------------------------------------------------------------------------------------------
  J1                   JUNCTION     0.835    0.835     0  06:56        8.92        8.92       0.055
  J3                   JUNCTION     0.000    0.191     0  05:12           0        14.2       0.276
  CSO7                 JUNCTION     0.121    0.121     0  04:26        2.58        2.58       0.053
  J5                   JUNCTION     0.171    0.242     0  04:26        3.17        5.66       0.161
  CSO9                 JUNCTION     0.324    0.324     0  14:26        3.86        3.86       0.089
  J8                   JUNCTION     1.212    1.339     0  14:26        17.9        21.6       0.249
  CSO8                 JUNCTION     2.038    2.038     0  14:11        15.4        15.4       0.013
  J10                  JUNCTION     1.954    2.442     0  14:06        10.5        24.2       0.193
  J13                  JUNCTION     0.802    0.802     0  04:26        10.7        10.7       0.065
  J15                  JUNCTION     0.000    2.088     0  06:56           0          40       0.381
  J16                  JUNCTION     1.817    1.817     0  06:56        17.7        17.7       0.033
  CSO10                JUNCTION     0.564    0.564     0  07:01        6.14        6.14       0.008
  J12                  JUNCTION     0.000    1.992     0  14:11           0        29.8       2.778
  J4                   JUNCTION     0.000    0.085     0  04:21           0         2.5       0.357
  J6                   JUNCTION     0.000    0.028     0  04:50           0         1.9       0.220
  J2                   JUNCTION     0.000    0.039     0  03:54           0        3.04       0.183
  J19                  JUNCTION     0.000    0.271     0  02:52           0        21.4       0.059
  J9                   JUNCTION     0.000    0.075     0  04:10           0         5.7       0.118
  J14                  JUNCTION     0.000    0.124     0  04:38           0        9.24       0.079
  J17                  JUNCTION     0.000    0.033     0  04:25           0        2.52       0.266
  J7                   JUNCTION     0.000    0.127     0  14:44           0        3.69       0.540
  J11                  JUNCTION     0.000    0.487     0  14:31           0        13.8       0.356
  J18                  JUNCTION     0.000    0.202     0  07:22           0        5.77       0.188
  Out_to_WWTP          OUTFALL      0.000    0.271     0  21:50           0        21.4       0.000
  T5                   STORAGE      0.000    0.772     0  06:56           0        8.92       5.903
  T4                   STORAGE      0.000    0.228     0  04:32           0        5.65       6.897
  T6                   STORAGE      0.000    1.225     0  14:27           0        21.6       4.095
  T3                   STORAGE      0.000    2.293     0  14:11           0          29       4.991
  T2                   STORAGE      0.000    0.726     0  04:26           0        10.7       9.669
  T1                   STORAGE      0.000    1.837     0  07:03           0        39.9       2.129
  
  
  **********************
  Node Surcharge Summary
  **********************
  
  Surcharging occurs when water rises above the top of the highest conduit.
  ---------------------------------------------------------------------
                                               Max. Height   Min. Depth
                                   Hours       Above Crown    Below Rim
  Node                 Type      Surcharged         Meters       Meters
  ---------------------------------------------------------------------
  CSO7                 JUNCTION        2.77          0.945        0.000
  CSO9                 JUNCTION        4.38          1.682        0.000
  CSO8                 JUNCTION        4.59          1.547        0.000
  CSO10                JUNCTION        2.16          0.560        0.000
  J4                   JUNCTION        2.54          1.178        0.522
  
  
  *********************
  Node Flooding Summary
  *********************
  
  Flooding refers to all water that overflows a node, whether it ponds or not.
  --------------------------------------------------------------------------
                                                             Total   Maximum
                                 Maximum   Time of Max       Flood    Ponded
                        Hours       Rate    Occurrence      Volume     Depth
  Node                 Flooded       CMS   days hr:min    10^6 ltr    Meters
  --------------------------------------------------------------------------
  CSO7                    1.56     0.050      0  04:26       0.080     0.000
  CSO9                    1.78     0.195      0  14:26       0.165     0.000
  CSO8                    1.77     1.545      0  14:11       1.622     0.000
  CSO10                   1.18     0.362      0  07:01       0.372     0.000
  T5                     10.90     0.733      0  06:56       4.885     0.000
  T4                     12.82     0.213      0  04:32       2.883     0.000
  T6                     15.48     1.150      0  14:27      14.416     0.000
  T3                     14.20     2.169      0  14:11      15.822     0.000
  T2                     13.18     0.693      0  04:27       6.275     0.000
  T1                     15.70     1.566      0  07:03      16.950     0.000
  
  
  **********************
  Storage Volume Summary
  **********************
  
  --------------------------------------------------------------------------------------------------
                         Average     Avg  Evap Exfil       Maximum     Max    Time of Max    Maximum
                          Volume    Pcnt  Pcnt  Pcnt        Volume    Pcnt     Occurrence    Outflow
  Storage Unit           1000 m3    Full  Loss  Loss       1000 m3    Full    days hr:min        CMS
  --------------------------------------------------------------------------------------------------
  T5                       0.433      87     0     0         0.500     100       0  03:54      0.039
  T4                       0.430      86     0     0         0.500     100       0  04:26      0.028
  T6                       0.519      86     0     0         0.600     100       0  04:10      0.075
  T3                       2.266      87     0     0         2.600     100       0  04:38      0.124
  T2                       0.868      87     0     0         1.000     100       0  04:25      0.033
  T1                       0.633      90     0     0         0.700     100       0  02:52      0.271
  
  
  ***********************
  Outfall Loading Summary
  ***********************
  
  -----------------------------------------------------------
                         Flow       Avg       Max       Total
                         Freq      Flow      Flow      Volume
  Outfall Node           Pcnt       CMS       CMS    10^6 ltr
  -----------------------------------------------------------
  Out_to_WWTP           99.47     0.253     0.271      21.403
  -----------------------------------------------------------
  System                99.47     0.253     0.271      21.403
  
  
  ********************
  Link Flow Summary
  ********************
  
  -----------------------------------------------------------------------------
                                 Maximum  Time of Max   Maximum    Max/    Max/
                                  |Flow|   Occurrence   |Veloc|    Full    Full
  Link                 Type          CMS  days hr:min     m/sec    Flow   Depth
  -----------------------------------------------------------------------------
  C1                   CONDUIT     0.039     0  04:41      1.04    0.01    0.11
  C6                   CONDUIT     0.072     0  04:31      1.29    1.14    0.77
  C2                   CONDUIT     0.028     0  05:43      1.00    0.03    0.18
  C9                   CONDUIT     0.127     0  14:44      1.29    0.43    0.59
  C16                  CONDUIT     0.488     0  14:05      1.83    0.05    0.18
  C3                   CONDUIT     0.124     0  05:12      1.82    0.05    0.14
  C19                  CONDUIT     0.033     0  05:26      0.61    0.01    0.27
  C11                  CONDUIT     0.191     0  07:39      1.70    0.01    0.15
  C20                  CONDUIT     1.662     0  06:56      4.17    0.05    0.19
  C22                  CONDUIT     0.202     0  07:22      1.51    0.09    0.39
  C12                  CONDUIT     0.075     0  05:54      0.54    0.01    0.31
  C17                  CONDUIT     1.917     0  14:11      2.82    0.09    0.38
  C10                  CONDUIT     1.225     0  14:27      1.06    0.13    0.62
  C13                  CONDUIT     2.293     0  14:11      1.72    0.13    0.78
  C18                  CONDUIT     0.726     0  04:26      1.59    0.03    0.56
  C23                  CONDUIT     1.837     0  07:03      1.72    0.20    0.65
  C4                   CONDUIT     0.772     0  06:56      1.68    0.19    0.65
  C7                   CONDUIT     0.228     0  04:32      1.19    0.06    0.58
  C14                  CONDUIT     0.271     0  21:50      2.08    0.02    0.09
  C5                   CONDUIT     0.085     0  04:21      1.66    1.45    1.00
  C8                   CONDUIT     0.127     0  14:44      1.80    1.60    0.86
  C15                  CONDUIT     0.487     0  14:31      3.64    1.55    0.83
  C21                  CONDUIT     0.202     0  07:22      1.86    1.16    0.69
  V4                   ORIFICE     0.028     0  04:50                      0.35
  V5                   ORIFICE     0.039     0  03:54                      1.00
  V1                   ORIFICE     0.271     0  02:52                      1.00
  V6                   ORIFICE     0.075     0  04:10                      0.43
  V3                   ORIFICE     0.124     0  04:38                      0.65
  V2                   ORIFICE     0.033     0  04:25                      0.24
  
  
  ***************************
  Flow Classification Summary
  ***************************
  
  -------------------------------------------------------------------------------------
                      Adjusted    ---------- Fraction of Time in Flow Class ---------- 
                       /Actual         Up    Down  Sub   Sup   Up    Down  Norm  Inlet 
  Conduit               Length    Dry  Dry   Dry   Crit  Crit  Crit  Crit  Ltd   Ctrl  
  -------------------------------------------------------------------------------------
  C1                      1.00   0.00  0.00  0.00  0.15  0.85  0.00  0.00  0.97  0.00
  C6                      1.00   0.00  0.00  0.00  0.16  0.84  0.00  0.00  0.00  0.00
  C2                      1.00   0.00  0.00  0.00  0.91  0.09  0.00  0.00  0.98  0.00
  C9                      1.00   0.00  0.00  0.00  1.00  0.00  0.00  0.00  1.00  0.00
  C16                     1.00   0.00  0.00  0.00  0.19  0.81  0.00  0.00  0.21  0.00
  C3                      1.00   0.00  0.00  0.00  0.02  0.98  0.00  0.00  0.07  0.00
  C19                     1.00   0.00  0.00  0.00  1.00  0.00  0.00  0.00  1.00  0.00
  C11                     1.00   0.00  0.00  0.00  0.40  0.60  0.00  0.00  1.00  0.00
  C20                     1.00   0.00  0.00  0.00  0.36  0.64  0.00  0.00  0.98  0.00
  C22                     1.00   0.00  0.00  0.00  0.71  0.29  0.00  0.00  1.00  0.00
  C12                     1.00   0.00  0.00  0.00  1.00  0.00  0.00  0.00  1.00  0.00
  C17                     1.00   0.00  0.00  0.00  0.83  0.17  0.00  0.00  0.98  0.00
  C10                     1.00   0.00  0.00  0.00  0.96  0.04  0.00  0.00  0.97  0.00
  C13                     1.00   0.00  0.00  0.00  0.96  0.04  0.00  0.00  0.13  0.00
  C18                     1.00   0.00  0.00  0.00  0.97  0.03  0.00  0.00  0.99  0.00
  C23                     1.00   0.00  0.00  0.00  0.97  0.03  0.00  0.00  0.98  0.00
  C4                      1.00   0.00  0.00  0.00  0.98  0.02  0.00  0.00  0.98  0.00
  C7                      1.00   0.00  0.00  0.00  0.97  0.03  0.00  0.00  0.98  0.00
  C14                     1.00   0.00  0.00  0.00  0.00  1.00  0.00  0.00  0.15  0.00
  C5                      1.00   0.00  0.00  0.00  0.88  0.12  0.00  0.00  0.85  0.00
  C8                      1.00   0.00  0.00  0.00  0.22  0.78  0.00  0.00  0.00  0.00
  C15                     1.00   0.00  0.00  0.00  0.00  1.00  0.00  0.00  0.00  0.00
  C21                     1.00   0.00  0.00  0.00  0.02  0.98  0.00  0.00  0.00  0.00
  
  
  *************************
  Conduit Surcharge Summary
  *************************
  
  ----------------------------------------------------------------------------
                                                           Hours        Hours 
                         --------- Hours Full --------   Above Full   Capacity
  Conduit                Both Ends  Upstream  Dnstream   Normal Flow   Limited
  ----------------------------------------------------------------------------
  C6                          0.01      2.54      0.01      1.95         0.01
  C10                         0.01      0.01     21.30      0.01         0.01
  C13                         0.01      0.01     20.73      0.01         0.01
  C18                         0.01      0.01     20.99      0.01         0.01
  C23                         0.01      0.01     22.06      0.01         0.01
  C4                          0.01      0.01     22.15      0.01         0.01
  C7                          0.01      0.01     21.49      0.01         0.01
  C5                          2.69      2.77      3.24      2.90         2.51
  C8                          0.01      4.38      0.01      4.40         0.01
  C15                         0.01      4.59      0.01      5.04         0.01
  C21                         0.01      2.16      0.01      1.95         0.01
  

  Analysis begun on:  Tue Sep 21 14:07:11 2021
  Analysis ended on:  Tue Sep 21 14:07:11 2021
  Total elapsed time: < 1 sec