
  EPA STORM WATER MANAGEMENT MODEL - VERSION 5.1 (Build 5.3.0.dev0)
  --------------------------------------------------------------

  WARNING 09: time series interval greater than recording interval for Rain Gage RG1
  WARNING 09: time series interval greater than recording interval for Rain Gage RG2
  WARNING 09: time series interval greater than recording interval for Rain Gage RG3
  WARNING 09: time series interval greater than recording interval for Rain Gage RG4
  
  *********************************************************
  NOTE: The summary statistics displayed in this report are
  based on results found at every computational time step,  
  not just on results from each reporting time step.
  *********************************************************
  
  ****************
  Analysis Options
  ****************
  Flow Units ............... CMS
  Process Models:
    Rainfall/Runoff ........ YES
    RDII ................... NO
    Snowmelt ............... NO
    Groundwater ............ NO
    Flow Routing ........... YES
    Ponding Allowed ........ YES
    Water Quality .......... NO
  Infiltration Method ...... HORTON
  Flow Routing Method ...... DYNWAVE
  Surcharge Method ......... EXTRAN
  Starting Date ............ 08/28/2015 00:00:00
  Ending Date .............. 08/28/2015 23:40:00
  Antecedent Dry Days ...... 0.0
  Report Time Step ......... 00:01:00
  Wet Time Step ............ 00:01:00
  Dry Time Step ............ 00:01:00
  Routing Time Step ........ 5.00 sec
  Variable Time Step ....... YES
  Maximum Trials ........... 8
  Number of Threads ........ 1
  Head Tolerance ........... 0.001500 m
  
  
  **************************        Volume         Depth
  Runoff Quantity Continuity     hectare-m            mm
  **************************     ---------       -------
  Total Precipitation ......         1.831        10.159
  Evaporation Loss .........         0.000         0.000
  Infiltration Loss ........         0.000         0.000
  Surface Runoff ...........         1.789         9.926
  Final Storage ............         0.043         0.241
  Continuity Error (%) .....        -0.074
  
  
  **************************        Volume        Volume
  Flow Routing Continuity        hectare-m      10^6 ltr
  **************************     ---------     ---------
  Dry Weather Inflow .......         0.758         7.576
  Wet Weather Inflow .......         1.789        17.886
  Groundwater Inflow .......         0.000         0.000
  RDII Inflow ..............         0.000         0.000
  External Inflow ..........         0.000         0.000
  External Outflow .........         1.452        14.515
  Flooding Loss ............         0.153         1.533
  Evaporation Loss .........         0.000         0.000
  Exfiltration Loss ........         0.000         0.000
  Initial Stored Volume ....         0.000         0.000
  Final Stored Volume ......         0.720         7.200
  Continuity Error (%) .....         8.693
  
  
  *************************
  Highest Continuity Errors
  *************************
  Node T2 (28.29%)
  Node T4 (15.97%)
  Node T3 (13.08%)
  Node T5 (11.99%)
  Node T6 (10.36%)
  
  
  ***************************
  Time-Step Critical Elements
  ***************************
  None
  
  
  ********************************
  Highest Flow Instability Indexes
  ********************************
  All links are stable.
  
  
  *************************
  Routing Time Step Summary
  *************************
  Minimum Time Step           :     4.50 sec
  Average Time Step           :     5.00 sec
  Maximum Time Step           :     5.00 sec
  Percent in Steady State     :     0.00
  Average Iterations per Step :     2.00
  Percent Not Converging      :     0.00
  
  
  ***************************
  Subcatchment Runoff Summary
  ***************************
  
  ------------------------------------------------------------------------------------------------------------------------------
                            Total      Total      Total      Total     Imperv       Perv      Total       Total     Peak  Runoff
                           Precip      Runon       Evap      Infil     Runoff     Runoff     Runoff      Runoff   Runoff   Coeff
  Subcatchment                 mm         mm         mm         mm         mm         mm         mm    10^6 ltr      CMS
  ------------------------------------------------------------------------------------------------------------------------------
  SC01                      10.36       0.00       0.00       0.00      10.20       0.00      10.20        3.37     0.47   0.985
  SC02                       9.12       0.00       0.00       0.00       8.93       0.00       8.93        2.03     0.22   0.979
  SC03                      10.33       0.00       0.00       0.00      10.19       0.00      10.19        1.83     0.23   0.986
  SC04                       9.12       0.00       0.00       0.00       8.80       0.00       8.80        0.61     0.05   0.965
  SC05                      10.36       0.00       0.00       0.00      10.19       0.00      10.19        1.59     0.21   0.984
  SC06                      10.56       0.00       0.00       0.00      10.16       0.00      10.16        3.31     0.19   0.962
  SC07                       9.12       0.00       0.00       0.00       8.80       0.00       8.80        0.42     0.03   0.965
  SC08                      10.33       0.00       0.00       0.00      10.10       0.00      10.10        2.83     0.27   0.978
  SC09                      10.56       0.00       0.00       0.00      10.29       0.00      10.29        0.71     0.05   0.974
  SC010                     10.36       0.00       0.00       0.00      10.17       0.00      10.17        1.19     0.14   0.982
  
  
  ******************
  Node Depth Summary
  ******************
  
  ---------------------------------------------------------------------------------
                                 Average  Maximum  Maximum  Time of Max    Reported
                                   Depth    Depth      HGL   Occurrence   Max Depth
  Node                 Type       Meters   Meters   Meters  days hr:min      Meters
  ---------------------------------------------------------------------------------
  J1                   JUNCTION     0.06     0.15    34.15     0  06:27        0.15
  J3                   JUNCTION     0.10     0.13    18.13     0  21:39        0.13
  CSO7                 JUNCTION     0.07     0.16    34.16     0  06:36        0.16
  J5                   JUNCTION     0.05     0.10    32.10     0  06:42        0.10
  CSO9                 JUNCTION     0.08     0.20    40.20     0  06:27        0.20
  J8                   JUNCTION     0.08     0.17    36.17     0  06:32        0.17
  CSO8                 JUNCTION     0.09     0.35    32.35     0  06:26        0.34
  J10                  JUNCTION     0.07     0.20    29.20     0  06:28        0.20
  J13                  JUNCTION     0.05     0.13    29.13     0  06:32        0.13
  J15                  JUNCTION     0.14     0.26    15.26     0  06:33        0.26
  J16                  JUNCTION     0.05     0.16    30.16     0  06:27        0.16
  CSO10                JUNCTION     0.09     0.33    30.33     0  06:27        0.33
  J12                  JUNCTION     0.23     0.75    26.75     0  20:17        0.75
  J4                   JUNCTION     0.09     0.18    33.18     0  06:43        0.18
  J6                   JUNCTION     0.05     0.07    25.07     0  21:37        0.07
  J2                   JUNCTION     0.06     0.08    25.08     0  19:24        0.08
  J19                  JUNCTION     0.13     0.17     8.17     0  17:49        0.17
  J9                   JUNCTION     0.08     0.11    29.11     0  18:41        0.11
  J14                  JUNCTION     0.11     0.15    20.15     0  20:22        0.15
  J17                  JUNCTION     0.05     0.07    20.07     0  19:59        0.07
  J7                   JUNCTION     0.06     0.14    39.14     0  06:33        0.14
  J11                  JUNCTION     0.07     0.22    31.22     0  06:32        0.22
  J18                  JUNCTION     0.04     0.13    29.13     0  06:33        0.13
  Out_to_WWTP          OUTFALL      0.13     0.17     6.17     0  20:21        0.17
  T5                   STORAGE      2.35     4.75    31.75     0  19:22        4.75
  T4                   STORAGE      2.29     4.89    31.89     0  21:07        4.89
  T6                   STORAGE      2.75     5.00    36.00     0  17:19        5.00
  T3                   STORAGE      2.39     4.75    26.75     0  20:21        4.75
  T2                   STORAGE      2.27     4.58    25.58     0  19:57        4.58
  T1                   STORAGE      2.58     5.00    15.00     0  17:48        5.00
  
  
  *******************
  Node Inflow Summary
  *******************
  
  -------------------------------------------------------------------------------------------------
                                  Maximum  Maximum                  Lateral       Total        Flow
                                  Lateral    Total  Time of Max      Inflow      Inflow     Balance
                                   Inflow   Inflow   Occurrence      Volume      Volume       Error
  Node                 Type           CMS      CMS  days hr:min    10^6 ltr    10^6 ltr     Percent
  -------------------------------------------------------------------------------------------------
  J1                   JUNCTION     0.227    0.227     0  06:26        2.68        2.68      -0.041
  J3                   JUNCTION     0.000    0.183     0  21:34           0        9.26       0.388
  CSO7                 JUNCTION     0.041    0.041     0  06:36       0.983       0.983       0.021
  J5                   JUNCTION     0.052    0.089     0  06:41       0.855        1.84       0.029
  CSO9                 JUNCTION     0.056    0.056     0  06:26        1.09        1.09       0.022
  J8                   JUNCTION     0.214    0.260     0  06:31        5.14        6.23       0.036
  CSO8                 JUNCTION     0.285    0.285     0  06:26        3.28        3.28       0.006
  J10                  JUNCTION     0.238    0.460     0  06:26        2.58        5.85      -0.008
  J13                  JUNCTION     0.233    0.233     0  06:31        2.94        2.94      -0.134
  J15                  JUNCTION     0.000    0.643     0  06:32           0        16.4       0.467
  J16                  JUNCTION     0.483    0.483     0  06:26        4.44        4.44      -0.034
  CSO10                JUNCTION     0.147    0.147     0  06:26        1.47        1.47       0.017
  J12                  JUNCTION     0.000    0.481     0  06:32           0        10.1       3.775
  J4                   JUNCTION     0.000    0.040     0  06:36           0       0.983       0.174
  J6                   JUNCTION     0.000    0.028     0  21:30           0        1.14       0.346
  J2                   JUNCTION     0.000    0.038     0  19:23           0        2.04       0.236
  J19                  JUNCTION     0.000    0.271     0  17:48           0        14.5       0.078
  J9                   JUNCTION     0.000    0.075     0  17:19           0        4.25       0.366
  J14                  JUNCTION     0.000    0.120     0  20:22           0        6.08       0.118
  J17                  JUNCTION     0.000    0.032     0  19:57           0        1.24       0.295
  J7                   JUNCTION     0.000    0.054     0  06:27           0        1.09       0.193
  J11                  JUNCTION     0.000    0.282     0  06:26           0        3.28       0.179
  J18                  JUNCTION     0.000    0.139     0  06:27           0        1.47       0.019
  Out_to_WWTP          OUTFALL      0.000    0.271     0  17:50           0        14.5       0.000
  T5                   STORAGE      0.000    0.207     0  06:27           0        2.68      13.622
  T4                   STORAGE      0.000    0.087     0  06:42           0        1.84      19.008
  T6                   STORAGE      0.000    0.253     0  06:32           0        6.22      11.561
  T3                   STORAGE      0.000    0.474     0  06:34           0        9.72      15.049
  T2                   STORAGE      0.000    0.214     0  06:32           0        2.94      39.453
  T1                   STORAGE      0.000    0.603     0  06:33           0        16.3       3.899
  
  
  **********************
  Node Surcharge Summary
  **********************
  
  No nodes were surcharged.
  
  
  *********************
  Node Flooding Summary
  *********************
  
  Flooding refers to all water that overflows a node, whether it ponds or not.
  --------------------------------------------------------------------------
                                                             Total   Maximum
                                 Maximum   Time of Max       Flood    Ponded
                        Hours       Rate    Occurrence      Volume     Depth
  Node                 Flooded       CMS   days hr:min    10^6 ltr    Meters
  --------------------------------------------------------------------------
  T6                      3.66     0.124      0  18:22       0.883     0.000
  T1                      2.28     0.159      0  18:39       0.650     0.000
  
  
  **********************
  Storage Volume Summary
  **********************
  
  --------------------------------------------------------------------------------------------------
                         Average     Avg  Evap Exfil       Maximum     Max    Time of Max    Maximum
                          Volume    Pcnt  Pcnt  Pcnt        Volume    Pcnt     Occurrence    Outflow
  Storage Unit           1000 m3    Full  Loss  Loss       1000 m3    Full    days hr:min        CMS
  --------------------------------------------------------------------------------------------------
  T5                       0.235      47     0     0         0.475      95       0  19:22      0.038
  T4                       0.229      46     0     0         0.489      98       0  21:07      0.028
  T6                       0.330      55     0     0         0.600     100       0  17:19      0.075
  T3                       1.243      48     0     0         2.471      95       0  20:21      0.120
  T2                       0.453      45     0     0         0.915      92       0  19:57      0.032
  T1                       0.361      52     0     0         0.700     100       0  17:48      0.271
  
  
  ***********************
  Outfall Loading Summary
  ***********************
  
  -----------------------------------------------------------
                         Flow       Avg       Max       Total
                         Freq      Flow      Flow      Volume
  Outfall Node           Pcnt       CMS       CMS    10^6 ltr
  -----------------------------------------------------------
  Out_to_WWTP           99.43     0.171     0.271      14.515
  -----------------------------------------------------------
  System                99.43     0.171     0.271      14.515
  
  
  ********************
  Link Flow Summary
  ********************
  
  -----------------------------------------------------------------------------
                                 Maximum  Time of Max   Maximum    Max/    Max/
                                  |Flow|   Occurrence   |Veloc|    Full    Full
  Link                 Type          CMS  days hr:min     m/sec    Flow   Depth
  -----------------------------------------------------------------------------
  C1                   CONDUIT     0.038     0  19:24      0.93    0.01    0.10
  C6                   CONDUIT     0.038     0  06:43      1.17    0.61    0.47
  C2                   CONDUIT     0.028     0  21:37      0.88    0.03    0.17
  C9                   CONDUIT     0.050     0  06:33      0.98    0.17    0.31
  C16                  CONDUIT     0.257     0  06:33      1.45    0.02    0.11
  C3                   CONDUIT     0.120     0  20:22      1.80    0.05    0.14
  C19                  CONDUIT     0.032     0  19:59      0.60    0.01    0.16
  C11                  CONDUIT     0.183     0  21:39      1.77    0.01    0.09
  C20                  CONDUIT     0.437     0  06:27      2.67    0.01    0.10
  C22                  CONDUIT     0.131     0  06:33      1.39    0.06    0.25
  C12                  CONDUIT     0.075     0  18:41      1.00    0.01    0.22
  C17                  CONDUIT     0.439     0  06:28      2.47    0.02    0.21
  C10                  CONDUIT     0.253     0  06:32      0.94    0.03    0.56
  C13                  CONDUIT     0.474     0  06:34      1.13    0.03    0.69
  C18                  CONDUIT     0.214     0  06:32      1.43    0.01    0.52
  C23                  CONDUIT     0.603     0  06:33      1.36    0.07    0.59
  C4                   CONDUIT     0.207     0  06:27      1.13    0.05    0.58
  C7                   CONDUIT     0.087     0  06:42      0.83    0.02    0.55
  C14                  CONDUIT     0.271     0  17:50      2.08    0.02    0.09
  C5                   CONDUIT     0.040     0  06:36      1.15    0.69    0.66
  C8                   CONDUIT     0.054     0  06:27      1.26    0.67    0.53
  C15                  CONDUIT     0.282     0  06:26      2.68    0.90    0.62
  C21                  CONDUIT     0.139     0  06:27      1.77    0.80    0.51
  V4                   ORIFICE     0.028     0  21:30                      0.35
  V5                   ORIFICE     0.038     0  19:23                      1.00
  V1                   ORIFICE     0.271     0  17:48                      1.00
  V6                   ORIFICE     0.075     0  17:19                      0.43
  V3                   ORIFICE     0.120     0  20:22                      0.65
  V2                   ORIFICE     0.032     0  19:57                      0.24
  
  
  ***************************
  Flow Classification Summary
  ***************************
  
  -------------------------------------------------------------------------------------
                      Adjusted    ---------- Fraction of Time in Flow Class ---------- 
                       /Actual         Up    Down  Sub   Sup   Up    Down  Norm  Inlet 
  Conduit               Length    Dry  Dry   Dry   Crit  Crit  Crit  Crit  Ltd   Ctrl  
  -------------------------------------------------------------------------------------
  C1                      1.00   0.00  0.00  0.00  0.31  0.69  0.00  0.00  0.96  0.00
  C6                      1.00   0.00  0.00  0.00  0.01  0.99  0.00  0.00  0.00  0.00
  C2                      1.00   0.00  0.00  0.00  0.81  0.19  0.00  0.00  0.97  0.00
  C9                      1.00   0.00  0.00  0.00  1.00  0.00  0.00  0.00  1.00  0.00
  C16                     1.00   0.00  0.19  0.00  0.44  0.37  0.00  0.00  0.37  0.00
  C3                      1.00   0.00  0.00  0.00  0.03  0.96  0.00  0.00  0.18  0.00
  C19                     1.00   0.00  0.00  0.00  1.00  0.00  0.00  0.00  1.00  0.00
  C11                     1.00   0.00  0.00  0.00  0.11  0.89  0.00  0.00  1.00  0.00
  C20                     1.00   0.00  0.00  0.00  0.71  0.29  0.00  0.00  0.99  0.00
  C22                     1.00   0.00  0.00  0.00  0.95  0.05  0.00  0.00  1.00  0.00
  C12                     1.00   0.00  0.00  0.00  0.54  0.46  0.00  0.00  1.00  0.00
  C17                     1.00   0.00  0.00  0.00  0.69  0.31  0.00  0.00  0.97  0.00
  C10                     1.00   0.00  0.00  0.00  0.83  0.17  0.00  0.00  0.98  0.00
  C13                     1.00   0.00  0.00  0.00  0.79  0.21  0.00  0.00  0.67  0.00
  C18                     1.00   0.00  0.00  0.00  0.93  0.07  0.00  0.00  0.98  0.00
  C23                     1.00   0.00  0.00  0.00  0.79  0.21  0.00  0.00  0.96  0.00
  C4                      1.00   0.00  0.00  0.00  0.82  0.18  0.00  0.00  0.98  0.00
  C7                      1.00   0.00  0.00  0.00  0.91  0.09  0.00  0.00  0.97  0.00
  C14                     1.00   0.00  0.00  0.00  0.00  1.00  0.00  0.00  0.40  0.00
  C5                      1.00   0.00  0.00  0.00  0.92  0.08  0.00  0.00  0.98  0.00
  C8                      1.00   0.00  0.00  0.00  0.15  0.85  0.00  0.00  0.00  0.00
  C15                     1.00   0.19  0.00  0.00  0.00  0.81  0.00  0.00  0.00  0.00
  C21                     1.00   0.00  0.00  0.00  0.00  1.00  0.00  0.00  0.00  0.00
  
  
  *************************
  Conduit Surcharge Summary
  *************************
  
  ----------------------------------------------------------------------------
                                                           Hours        Hours 
                         --------- Hours Full --------   Above Full   Capacity
  Conduit                Both Ends  Upstream  Dnstream   Normal Flow   Limited
  ----------------------------------------------------------------------------
  C10                         0.01      0.01     17.23      0.01         0.01
  C13                         0.01      0.01     16.12      0.01         0.01
  C18                         0.01      0.01     15.85      0.01         0.01
  C23                         0.01      0.01     17.30      0.01         0.01
  C4                          0.01      0.01     17.43      0.01         0.01
  C7                          0.01      0.01     17.04      0.01         0.01
  

  Analysis begun on:  Tue Sep 21 14:21:05 2021
  Analysis ended on:  Tue Sep 21 14:21:05 2021
  Total elapsed time: < 1 sec