
  EPA STORM WATER MANAGEMENT MODEL - VERSION 5.1 (Build 5.3.0.dev0)
  --------------------------------------------------------------

  WARNING 09: time series interval greater than recording interval for Rain Gage RG1
  WARNING 09: time series interval greater than recording interval for Rain Gage RG2
  WARNING 09: time series interval greater than recording interval for Rain Gage RG3
  WARNING 09: time series interval greater than recording interval for Rain Gage RG4
  
  *********************************************************
  NOTE: The summary statistics displayed in this report are
  based on results found at every computational time step,  
  not just on results from each reporting time step.
  *********************************************************
  
  ****************
  Analysis Options
  ****************
  Flow Units ............... CMS
  Process Models:
    Rainfall/Runoff ........ YES
    RDII ................... NO
    Snowmelt ............... NO
    Groundwater ............ NO
    Flow Routing ........... YES
    Ponding Allowed ........ YES
    Water Quality .......... NO
  Infiltration Method ...... HORTON
  Flow Routing Method ...... DYNWAVE
  Surcharge Method ......... EXTRAN
  Starting Date ............ 08/28/2015 00:00:00
  Ending Date .............. 08/28/2015 23:40:00
  Antecedent Dry Days ...... 0.0
  Report Time Step ......... 00:01:00
  Wet Time Step ............ 00:01:00
  Dry Time Step ............ 00:01:00
  Routing Time Step ........ 5.00 sec
  Variable Time Step ....... YES
  Maximum Trials ........... 8
  Number of Threads ........ 1
  Head Tolerance ........... 0.001500 m
  
  
  **************************        Volume         Depth
  Runoff Quantity Continuity     hectare-m            mm
  **************************     ---------       -------
  Total Precipitation ......         2.090        11.599
  Evaporation Loss .........         0.000         0.000
  Infiltration Loss ........         0.000         0.000
  Surface Runoff ...........         1.980        10.988
  Final Storage ............         0.112         0.623
  Continuity Error (%) .....        -0.101
  
  
  **************************        Volume        Volume
  Flow Routing Continuity        hectare-m      10^6 ltr
  **************************     ---------     ---------
  Dry Weather Inflow .......         0.758         7.576
  Wet Weather Inflow .......         1.979        19.788
  Groundwater Inflow .......         0.000         0.000
  RDII Inflow ..............         0.000         0.000
  External Inflow ..........         0.000         0.000
  External Outflow .........         1.282        12.818
  Flooding Loss ............         0.370         3.701
  Evaporation Loss .........         0.000         0.000
  Exfiltration Loss ........         0.000         0.000
  Initial Stored Volume ....         0.000         0.000
  Final Stored Volume ......         0.828         8.277
  Continuity Error (%) .....         9.383
  
  
  *************************
  Highest Continuity Errors
  *************************
  Node T2 (24.07%)
  Node T4 (15.83%)
  Node T3 (14.46%)
  Node T5 (14.10%)
  Node T6 (11.89%)
  
  
  ***************************
  Time-Step Critical Elements
  ***************************
  None
  
  
  ********************************
  Highest Flow Instability Indexes
  ********************************
  Link C15 (1)
  
  
  *************************
  Routing Time Step Summary
  *************************
  Minimum Time Step           :     4.50 sec
  Average Time Step           :     5.00 sec
  Maximum Time Step           :     5.00 sec
  Percent in Steady State     :     0.00
  Average Iterations per Step :     2.00
  Percent Not Converging      :     0.00
  
  
  ***************************
  Subcatchment Runoff Summary
  ***************************
  
  ------------------------------------------------------------------------------------------------------------------------------
                            Total      Total      Total      Total     Imperv       Perv      Total       Total     Peak  Runoff
                           Precip      Runon       Evap      Infil     Runoff     Runoff     Runoff      Runoff   Runoff   Coeff
  Subcatchment                 mm         mm         mm         mm         mm         mm         mm    10^6 ltr      CMS
  ------------------------------------------------------------------------------------------------------------------------------
  SC01                      11.38       0.00       0.00       0.00      10.92       0.00      10.92        3.60     0.39   0.959
  SC02                      13.82       0.00       0.00       0.00      13.31       0.00      13.31        3.03     0.30   0.963
  SC03                      12.12       0.00       0.00       0.00      11.67       0.00      11.67        2.10     0.25   0.963
  SC04                      13.82       0.00       0.00       0.00      12.89       0.00      12.89        0.89     0.07   0.933
  SC05                      11.38       0.00       0.00       0.00      10.89       0.00      10.89        1.70     0.18   0.957
  SC06                       9.39       0.00       0.00       0.00       8.62       0.00       8.62        2.81     0.22   0.918
  SC07                      13.82       0.00       0.00       0.00      12.90       0.00      12.90        0.61     0.05   0.933
  SC08                      12.12       0.00       0.00       0.00      11.37       0.00      11.37        3.18     0.31   0.938
  SC09                       9.39       0.00       0.00       0.00       8.81       0.00       8.81        0.61     0.06   0.938
  SC010                     11.38       0.00       0.00       0.00      10.81       0.00      10.81        1.27     0.13   0.950
  
  
  ******************
  Node Depth Summary
  ******************
  
  ---------------------------------------------------------------------------------
                                 Average  Maximum  Maximum  Time of Max    Reported
                                   Depth    Depth      HGL   Occurrence   Max Depth
  Node                 Type       Meters   Meters   Meters  days hr:min      Meters
  ---------------------------------------------------------------------------------
  J1                   JUNCTION     0.06     0.14    34.14     0  16:42        0.14
  J3                   JUNCTION     0.09     0.13    18.13     0  19:34        0.13
  CSO7                 JUNCTION     0.08     0.19    34.19     0  16:46        0.19
  J5                   JUNCTION     0.05     0.12    32.12     0  16:52        0.12
  CSO9                 JUNCTION     0.08     0.22    40.22     0  16:41        0.22
  J8                   JUNCTION     0.08     0.18    36.18     0  16:47        0.18
  CSO8                 JUNCTION     0.10     0.40    32.40     0  16:36        0.39
  J10                  JUNCTION     0.08     0.22    29.22     0  16:42        0.22
  J13                  JUNCTION     0.05     0.15    29.15     0  16:46        0.15
  J15                  JUNCTION     0.14     0.26    15.26     0  16:48        0.26
  J16                  JUNCTION     0.05     0.15    30.15     0  16:41        0.15
  CSO10                JUNCTION     0.09     0.30    30.30     0  16:41        0.30
  J12                  JUNCTION     0.24     1.03    27.03     0  22:26        1.03
  J4                   JUNCTION     0.10     0.22    33.22     0  16:53        0.22
  J6                   JUNCTION     0.05     0.07    25.07     0  23:24        0.07
  J2                   JUNCTION     0.06     0.08    25.08     0  19:13        0.08
  J19                  JUNCTION     0.13     0.17     8.17     0  17:15        0.17
  J9                   JUNCTION     0.08     0.11    29.11     0  19:17        0.11
  J14                  JUNCTION     0.10     0.15    20.15     0  19:32        0.15
  J17                  JUNCTION     0.05     0.08    20.08     0  19:28        0.08
  J7                   JUNCTION     0.06     0.15    39.15     0  16:43        0.15
  J11                  JUNCTION     0.08     0.23    31.23     0  16:42        0.23
  J18                  JUNCTION     0.04     0.12    29.12     0  16:43        0.12
  Out_to_WWTP          OUTFALL      0.13     0.17     6.17     0  17:13        0.17
  T5                   STORAGE      1.88     5.00    32.00     0  18:27        5.00
  T4                   STORAGE      2.06     5.00    32.00     0  18:35        5.00
  T6                   STORAGE      2.15     5.00    36.00     0  17:54        5.00
  T3                   STORAGE      2.03     5.00    27.00     0  22:24        5.00
  T2                   STORAGE      2.11     5.00    26.00     0  18:32        5.00
  T1                   STORAGE      1.92     5.00    15.00     0  17:14        5.00
  
  
  *******************
  Node Inflow Summary
  *******************
  
  -------------------------------------------------------------------------------------------------
                                  Maximum  Maximum                  Lateral       Total        Flow
                                  Lateral    Total  Time of Max      Inflow      Inflow     Balance
                                   Inflow   Inflow   Occurrence      Volume      Volume       Error
  Node                 Type           CMS      CMS  days hr:min    10^6 ltr    10^6 ltr     Percent
  -------------------------------------------------------------------------------------------------
  J1                   JUNCTION     0.193    0.193     0  16:41        2.79        2.79       0.086
  J3                   JUNCTION     0.000    0.173     0  19:33           0        7.78       0.366
  CSO7                 JUNCTION     0.054    0.054     0  16:46        1.18        1.18       0.055
  J5                   JUNCTION     0.071    0.119     0  16:51        1.14        2.31       0.171
  CSO9                 JUNCTION     0.064    0.064     0  16:41       0.989       0.989       0.071
  J8                   JUNCTION     0.247    0.302     0  16:41        4.64        5.62       0.164
  CSO8                 JUNCTION     0.325    0.325     0  16:36        3.63        3.63       0.061
  J10                  JUNCTION     0.263    0.522     0  16:36        2.85        6.45       0.358
  J13                  JUNCTION     0.308    0.308     0  16:46        3.94        3.94       0.073
  J15                  JUNCTION     0.000    0.620     0  16:42           0        15.4       0.561
  J16                  JUNCTION     0.401    0.401     0  16:41        4.68        4.68       0.107
  CSO10                JUNCTION     0.129    0.129     0  16:41        1.54        1.54       0.089
  J12                  JUNCTION     0.000    0.550     0  16:42           0        10.3       8.523
  J4                   JUNCTION     0.000    0.053     0  16:46           0        1.18       0.393
  J6                   JUNCTION     0.000    0.028     0  19:50           0        1.22       0.342
  J2                   JUNCTION     0.000    0.039     0  18:28           0        1.85       0.280
  J19                  JUNCTION     0.000    0.271     0  17:14           0        12.8       0.086
  J9                   JUNCTION     0.000    0.075     0  17:54           0         3.9       0.404
  J14                  JUNCTION     0.000    0.118     0  19:40           0        4.72       0.092
  J17                  JUNCTION     0.000    0.033     0  18:32           0        1.45       0.447
  J7                   JUNCTION     0.000    0.062     0  16:42           0       0.988       0.422
  J11                  JUNCTION     0.000    0.318     0  16:36           0        3.63       0.636
  J18                  JUNCTION     0.000    0.124     0  16:41           0        1.54       0.304
  Out_to_WWTP          OUTFALL      0.000    0.271     0  17:15           0        12.8       0.000
  T5                   STORAGE      0.000    0.180     0  16:42           0        2.79      16.416
  T4                   STORAGE      0.000    0.116     0  16:52           0        2.31      18.802
  T6                   STORAGE      0.000    0.292     0  16:47           0        5.61      13.495
  T3                   STORAGE      0.000    0.541     0  16:44           0        9.54      16.908
  T2                   STORAGE      0.000    0.286     0  16:47           0        3.93      31.698
  T1                   STORAGE      0.000    0.592     0  16:48           0        15.3       3.994
  
  
  **********************
  Node Surcharge Summary
  **********************
  
  No nodes were surcharged.
  
  
  *********************
  Node Flooding Summary
  *********************
  
  Flooding refers to all water that overflows a node, whether it ponds or not.
  --------------------------------------------------------------------------
                                                             Total   Maximum
                                 Maximum   Time of Max       Flood    Ponded
                        Hours       Rate    Occurrence      Volume     Depth
  Node                 Flooded       CMS   days hr:min    10^6 ltr    Meters
  --------------------------------------------------------------------------
  T5                      1.13     0.062      0  18:47       0.154     0.000
  T4                      1.78     0.073      0  18:37       0.223     0.000
  T6                      2.36     0.128      0  17:57       0.580     0.000
  T3                      1.21     0.438      0  22:30       0.800     0.000
  T2                      2.61     0.131      0  18:32       0.539     0.000
  T1                      2.56     0.224      0  17:53       1.406     0.000
  
  
  **********************
  Storage Volume Summary
  **********************
  
  --------------------------------------------------------------------------------------------------
                         Average     Avg  Evap Exfil       Maximum     Max    Time of Max    Maximum
                          Volume    Pcnt  Pcnt  Pcnt        Volume    Pcnt     Occurrence    Outflow
  Storage Unit           1000 m3    Full  Loss  Loss       1000 m3    Full    days hr:min        CMS
  --------------------------------------------------------------------------------------------------
  T5                       0.188      38     0     0         0.500     100       0  18:27      0.039
  T4                       0.206      41     0     0         0.500     100       0  18:35      0.028
  T6                       0.258      43     0     0         0.600     100       0  17:54      0.075
  T3                       1.053      41     0     0         2.600     100       0  22:24      0.118
  T2                       0.421      42     0     0         1.000     100       0  18:32      0.033
  T1                       0.269      38     0     0         0.700     100       0  17:14      0.271
  
  
  ***********************
  Outfall Loading Summary
  ***********************
  
  -----------------------------------------------------------
                         Flow       Avg       Max       Total
                         Freq      Flow      Flow      Volume
  Outfall Node           Pcnt       CMS       CMS    10^6 ltr
  -----------------------------------------------------------
  Out_to_WWTP           99.47     0.151     0.271      12.818
  -----------------------------------------------------------
  System                99.47     0.151     0.271      12.818
  
  
  ********************
  Link Flow Summary
  ********************
  
  -----------------------------------------------------------------------------
                                 Maximum  Time of Max   Maximum    Max/    Max/
                                  |Flow|   Occurrence   |Veloc|    Full    Full
  Link                 Type          CMS  days hr:min     m/sec    Flow   Depth
  -----------------------------------------------------------------------------
  C1                   CONDUIT     0.039     0  19:13      1.03    0.01    0.10
  C6                   CONDUIT     0.050     0  16:53      1.24    0.80    0.56
  C2                   CONDUIT     0.028     0  23:24      1.01    0.03    0.16
  C9                   CONDUIT     0.058     0  16:43      1.04    0.20    0.33
  C16                  CONDUIT     0.292     0  16:43      1.51    0.03    0.11
  C3                   CONDUIT     0.118     0  19:33      1.78    0.05    0.14
  C19                  CONDUIT     0.033     0  19:28      0.71    0.01    0.16
  C11                  CONDUIT     0.173     0  19:34      1.50    0.01    0.09
  C20                  CONDUIT     0.372     0  16:42      2.23    0.01    0.10
  C22                  CONDUIT     0.117     0  16:43      1.27    0.05    0.24
  C12                  CONDUIT     0.075     0  19:17      0.90    0.01    0.28
  C17                  CONDUIT     0.497     0  16:42      2.51    0.02    0.29
  C10                  CONDUIT     0.292     0  16:47      1.09    0.03    0.56
  C13                  CONDUIT     0.541     0  16:44      1.36    0.03    0.76
  C18                  CONDUIT     0.286     0  16:47      1.52    0.01    0.54
  C23                  CONDUIT     0.592     0  16:48      1.25    0.07    0.59
  C4                   CONDUIT     0.180     0  16:42      1.26    0.04    0.57
  C7                   CONDUIT     0.116     0  16:52      1.17    0.03    0.56
  C14                  CONDUIT     0.271     0  17:15      2.08    0.02    0.09
  C5                   CONDUIT     0.053     0  16:46      1.22    0.90    0.79
  C8                   CONDUIT     0.062     0  16:42      1.29    0.78    0.58
  C15                  CONDUIT     0.318     0  16:36      2.72    1.01    0.69
  C21                  CONDUIT     0.124     0  16:41      1.72    0.71    0.48
  V4                   ORIFICE     0.028     0  19:50                      0.35
  V5                   ORIFICE     0.039     0  18:28                      1.00
  V1                   ORIFICE     0.271     0  17:14                      1.00
  V6                   ORIFICE     0.075     0  17:54                      0.43
  V3                   ORIFICE     0.118     0  19:40                      0.65
  V2                   ORIFICE     0.033     0  18:32                      0.24
  
  
  ***************************
  Flow Classification Summary
  ***************************
  
  -------------------------------------------------------------------------------------
                      Adjusted    ---------- Fraction of Time in Flow Class ---------- 
                       /Actual         Up    Down  Sub   Sup   Up    Down  Norm  Inlet 
  Conduit               Length    Dry  Dry   Dry   Crit  Crit  Crit  Crit  Ltd   Ctrl  
  -------------------------------------------------------------------------------------
  C1                      1.00   0.00  0.00  0.00  0.40  0.60  0.00  0.00  0.97  0.00
  C6                      1.00   0.00  0.00  0.00  0.01  0.99  0.00  0.00  0.00  0.00
  C2                      1.00   0.00  0.00  0.00  0.58  0.42  0.00  0.00  0.98  0.00
  C9                      1.00   0.00  0.00  0.00  1.00  0.00  0.00  0.00  1.00  0.00
  C16                     1.00   0.00  0.00  0.00  0.63  0.36  0.00  0.00  0.55  0.00
  C3                      1.00   0.00  0.00  0.00  0.03  0.97  0.00  0.00  0.42  0.00
  C19                     1.00   0.00  0.00  0.00  1.00  0.00  0.00  0.00  1.00  0.00
  C11                     1.00   0.00  0.00  0.00  0.15  0.85  0.00  0.00  1.00  0.00
  C20                     1.00   0.00  0.00  0.00  0.72  0.28  0.00  0.00  0.99  0.00
  C22                     1.00   0.00  0.00  0.00  0.95  0.05  0.00  0.00  1.00  0.00
  C12                     1.00   0.00  0.00  0.00  0.45  0.54  0.00  0.00  0.91  0.00
  C17                     1.00   0.00  0.00  0.00  0.41  0.59  0.00  0.00  0.98  0.00
  C10                     1.00   0.00  0.00  0.00  0.97  0.03  0.00  0.00  0.98  0.00
  C13                     1.00   0.00  0.00  0.00  0.94  0.06  0.00  0.00  0.73  0.00
  C18                     1.00   0.00  0.00  0.00  0.98  0.02  0.00  0.00  0.99  0.00
  C23                     1.00   0.00  0.00  0.00  0.96  0.04  0.00  0.00  0.97  0.00
  C4                      1.00   0.00  0.00  0.00  0.97  0.03  0.00  0.00  0.98  0.00
  C7                      1.00   0.00  0.00  0.00  0.97  0.03  0.00  0.00  0.98  0.00
  C14                     1.00   0.00  0.00  0.00  0.00  1.00  0.00  0.00  0.55  0.00
  C5                      1.00   0.00  0.00  0.00  0.85  0.15  0.00  0.00  0.98  0.00
  C8                      1.00   0.00  0.00  0.00  0.01  0.99  0.00  0.00  0.00  0.00
  C15                     1.00   0.00  0.00  0.00  0.00  1.00  0.00  0.00  0.00  0.00
  C21                     1.00   0.00  0.00  0.00  0.00  1.00  0.00  0.00  0.00  0.00
  
  
  *************************
  Conduit Surcharge Summary
  *************************
  
  ----------------------------------------------------------------------------
                                                           Hours        Hours 
                         --------- Hours Full --------   Above Full   Capacity
  Conduit                Both Ends  Upstream  Dnstream   Normal Flow   Limited
  ----------------------------------------------------------------------------
  C10                         0.01      0.01      8.72      0.01         0.01
  C13                         0.01      0.01      7.12      0.01         0.01
  C18                         0.01      0.01      7.13      0.01         0.01
  C23                         0.01      0.01      7.49      0.01         0.01
  C4                          0.01      0.01     11.38      0.01         0.01
  C7                          0.01      0.01     17.80      0.01         0.01
  C15                         0.01      0.01      0.01      0.01         0.01
  

  Analysis begun on:  Tue Sep 21 12:28:57 2021
  Analysis ended on:  Tue Sep 21 12:28:57 2021
  Total elapsed time: < 1 sec