
  EPA STORM WATER MANAGEMENT MODEL - VERSION 5.1 (Build 5.3.0.dev0)
  --------------------------------------------------------------

  WARNING 09: time series interval greater than recording interval for Rain Gage RG1
  WARNING 09: time series interval greater than recording interval for Rain Gage RG2
  WARNING 09: time series interval greater than recording interval for Rain Gage RG3
  WARNING 09: time series interval greater than recording interval for Rain Gage RG4
  
  *********************************************************
  NOTE: The summary statistics displayed in this report are
  based on results found at every computational time step,  
  not just on results from each reporting time step.
  *********************************************************
  
  ****************
  Analysis Options
  ****************
  Flow Units ............... CMS
  Process Models:
    Rainfall/Runoff ........ YES
    RDII ................... NO
    Snowmelt ............... NO
    Groundwater ............ NO
    Flow Routing ........... YES
    Ponding Allowed ........ YES
    Water Quality .......... NO
  Infiltration Method ...... HORTON
  Flow Routing Method ...... DYNWAVE
  Surcharge Method ......... EXTRAN
  Starting Date ............ 08/28/2015 00:00:00
  Ending Date .............. 08/28/2015 23:40:00
  Antecedent Dry Days ...... 0.0
  Report Time Step ......... 00:01:00
  Wet Time Step ............ 00:01:00
  Dry Time Step ............ 00:01:00
  Routing Time Step ........ 5.00 sec
  Variable Time Step ....... YES
  Maximum Trials ........... 8
  Number of Threads ........ 1
  Head Tolerance ........... 0.001500 m
  
  
  **************************        Volume         Depth
  Runoff Quantity Continuity     hectare-m            mm
  **************************     ---------       -------
  Total Precipitation ......         2.210        12.263
  Evaporation Loss .........         0.000         0.000
  Infiltration Loss ........         0.000         0.000
  Surface Runoff ...........         2.182        12.109
  Final Storage ............         0.031         0.171
  Continuity Error (%) .....        -0.132
  
  
  **************************        Volume        Volume
  Flow Routing Continuity        hectare-m      10^6 ltr
  **************************     ---------     ---------
  Dry Weather Inflow .......         0.758         7.576
  Wet Weather Inflow .......         2.182        21.819
  Groundwater Inflow .......         0.000         0.000
  RDII Inflow ..............         0.000         0.000
  External Inflow ..........         0.000         0.000
  External Outflow .........         1.019        10.190
  Flooding Loss ............         0.899         8.995
  Evaporation Loss .........         0.000         0.000
  Exfiltration Loss ........         0.000         0.000
  Initial Stored Volume ....         0.000         0.000
  Final Stored Volume ......         0.782         7.817
  Continuity Error (%) .....         8.145
  
  
  *************************
  Highest Continuity Errors
  *************************
  Node T2 (26.17%)
  Node T4 (15.95%)
  Node T3 (14.65%)
  Node T5 (12.24%)
  Node T6 (8.10%)
  
  
  ***************************
  Time-Step Critical Elements
  ***************************
  None
  
  
  ********************************
  Highest Flow Instability Indexes
  ********************************
  All links are stable.
  
  
  *************************
  Routing Time Step Summary
  *************************
  Minimum Time Step           :     4.50 sec
  Average Time Step           :     5.00 sec
  Maximum Time Step           :     5.00 sec
  Percent in Steady State     :     0.00
  Average Iterations per Step :     2.24
  Percent Not Converging      :     0.43
  
  
  ***************************
  Subcatchment Runoff Summary
  ***************************
  
  ------------------------------------------------------------------------------------------------------------------------------
                            Total      Total      Total      Total     Imperv       Perv      Total       Total     Peak  Runoff
                           Precip      Runon       Evap      Infil     Runoff     Runoff     Runoff      Runoff   Runoff   Coeff
  Subcatchment                 mm         mm         mm         mm         mm         mm         mm    10^6 ltr      CMS
  ------------------------------------------------------------------------------------------------------------------------------
  SC01                      12.19       0.00       0.00       0.00      12.09       0.00      12.09        3.99     1.46   0.991
  SC02                      10.43       0.00       0.00       0.00      10.34       0.00      10.34        2.35     0.68   0.991
  SC03                      11.59       0.00       0.00       0.00      11.52       0.00      11.52        2.07     0.45   0.994
  SC04                      10.43       0.00       0.00       0.00      10.19       0.00      10.19        0.70     0.15   0.977
  SC05                      12.19       0.00       0.00       0.00      12.07       0.00      12.07        1.88     0.64   0.991
  SC06                      14.76       0.00       0.00       0.00      14.47       0.00      14.47        4.71     0.68   0.980
  SC07                      10.43       0.00       0.00       0.00      10.19       0.00      10.19        0.48     0.11   0.977
  SC08                      11.59       0.00       0.00       0.00      11.44       0.00      11.44        3.20     0.55   0.987
  SC09                      14.76       0.00       0.00       0.00      14.61       0.00      14.61        1.01     0.20   0.990
  SC010                     12.19       0.00       0.00       0.00      12.04       0.00      12.04        1.41     0.41   0.988
  
  
  ******************
  Node Depth Summary
  ******************
  
  ---------------------------------------------------------------------------------
                                 Average  Maximum  Maximum  Time of Max    Reported
                                   Depth    Depth      HGL   Occurrence   Max Depth
  Node                 Type       Meters   Meters   Meters  days hr:min      Meters
  ---------------------------------------------------------------------------------
  J1                   JUNCTION     0.05     0.26    34.26     0  18:21        0.26
  J3                   JUNCTION     0.08     0.14    18.14     0  22:09        0.14
  CSO7                 JUNCTION     0.11     1.20    35.20     0  19:00        1.20
  J5                   JUNCTION     0.05     0.16    32.16     0  19:12        0.16
  CSO9                 JUNCTION     0.15     2.00    42.00     0  18:10        2.00
  J8                   JUNCTION     0.08     0.28    36.28     0  18:17        0.28
  CSO8                 JUNCTION     0.11     2.00    34.00     0  18:25        2.00
  J10                  JUNCTION     0.06     0.27    29.27     0  19:22        0.27
  J13                  JUNCTION     0.04     0.21    29.21     0  19:11        0.21
  J15                  JUNCTION     0.12     0.38    15.38     0  18:25        0.38
  J16                  JUNCTION     0.05     0.28    30.28     0  18:21        0.28
  CSO10                JUNCTION     0.09     1.00    31.00     0  18:20        1.00
  J12                  JUNCTION     0.25     1.04    27.04     0  19:38        1.04
  J4                   JUNCTION     0.10     1.44    34.44     0  19:03        0.75
  J6                   JUNCTION     0.04     0.07    25.07     0  22:07        0.07
  J2                   JUNCTION     0.05     0.08    25.08     0  19:43        0.08
  J19                  JUNCTION     0.11     0.17     8.17     0  18:30        0.17
  J9                   JUNCTION     0.07     0.11    29.11     0  19:48        0.11
  J14                  JUNCTION     0.09     0.15    20.15     0  19:38        0.15
  J17                  JUNCTION     0.04     0.08    20.08     0  20:31        0.08
  J7                   JUNCTION     0.06     0.23    39.23     0  18:23        0.23
  J11                  JUNCTION     0.06     0.29    31.29     0  19:22        0.29
  J18                  JUNCTION     0.04     0.16    29.16     0  18:29        0.16
  Out_to_WWTP          OUTFALL      0.10     0.17     6.17     0  21:18        0.17
  T5                   STORAGE      1.58     5.00    32.00     0  18:49        5.00
  T4                   STORAGE      1.48     5.00    32.00     0  19:42        5.00
  T6                   STORAGE      1.95     5.00    36.00     0  18:16        5.00
  T3                   STORAGE      1.59     5.00    27.00     0  19:36        5.00
  T2                   STORAGE      1.48     5.00    26.00     0  19:31        5.00
  T1                   STORAGE      1.59     5.00    15.00     0  18:29        5.00
  
  
  *******************
  Node Inflow Summary
  *******************
  
  -------------------------------------------------------------------------------------------------
                                  Maximum  Maximum                  Lateral       Total        Flow
                                  Lateral    Total  Time of Max      Inflow      Inflow     Balance
                                   Inflow   Inflow   Occurrence      Volume      Volume       Error
  Node                 Type           CMS      CMS  days hr:min    10^6 ltr    10^6 ltr     Percent
  -------------------------------------------------------------------------------------------------
  J1                   JUNCTION     0.658    0.658     0  18:21        2.98        2.98      -0.012
  J3                   JUNCTION     0.000    0.188     0  22:05           0         6.9       0.532
  CSO7                 JUNCTION     0.113    0.113     0  19:11        1.05        1.05       0.017
  J5                   JUNCTION     0.156    0.227     0  19:11       0.951        1.95       0.035
  CSO9                 JUNCTION     0.205    0.205     0  18:11        1.39        1.39       0.001
  J8                   JUNCTION     0.707    0.793     0  18:11        6.54         7.9       0.025
  CSO8                 JUNCTION     0.553    0.553     0  19:16        3.65        3.65      -0.037
  J10                  JUNCTION     0.463    0.859     0  19:16        2.82        6.47      -0.124
  J13                  JUNCTION     0.691    0.691     0  19:11        3.26        3.26      -0.073
  J15                  JUNCTION     0.000    1.639     0  18:21           0        14.5       0.560
  J16                  JUNCTION     1.469    1.469     0  18:21        5.07        5.07      -0.059
  CSO10                JUNCTION     0.412    0.412     0  18:21        1.69        1.69      -0.008
  J12                  JUNCTION     0.000    0.880     0  19:22           0        9.81       7.395
  J4                   JUNCTION     0.000    0.085     0  19:01           0       0.998       0.083
  J6                   JUNCTION     0.000    0.028     0  22:00           0       0.894       0.448
  J2                   JUNCTION     0.000    0.039     0  18:50           0        1.54       0.334
  J19                  JUNCTION     0.000    0.271     0  18:29           0        10.2       0.114
  J9                   JUNCTION     0.000    0.075     0  18:16           0        3.35       0.441
  J14                  JUNCTION     0.000    0.124     0  19:36           0        4.48       0.163
  J17                  JUNCTION     0.000    0.033     0  19:31           0       0.945       0.401
  J7                   JUNCTION     0.000    0.127     0  18:22           0        1.36       0.090
  J11                  JUNCTION     0.000    0.485     0  19:22           0        3.65       0.102
  J18                  JUNCTION     0.000    0.202     0  18:29           0        1.64       0.026
  Out_to_WWTP          OUTFALL      0.000    0.271     0  18:31           0        10.2       0.000
  T5                   STORAGE      0.000    0.590     0  18:21           0        2.98      13.950
  T4                   STORAGE      0.000    0.216     0  19:12           0        1.95      18.983
  T6                   STORAGE      0.000    0.761     0  18:17           0         7.9       8.817
  T3                   STORAGE      0.000    0.981     0  19:41           0        9.14      17.158
  T2                   STORAGE      0.000    0.634     0  19:11           0        3.26      35.441
  T1                   STORAGE      0.000    1.262     0  18:25           0        14.4       4.777
  
  
  **********************
  Node Surcharge Summary
  **********************
  
  Surcharging occurs when water rises above the top of the highest conduit.
  ---------------------------------------------------------------------
                                               Max. Height   Min. Depth
                                   Hours       Above Crown    Below Rim
  Node                 Type      Surcharged         Meters       Meters
  ---------------------------------------------------------------------
  CSO7                 JUNCTION        0.93          0.945        0.000
  CSO9                 JUNCTION        1.59          1.682        0.000
  CSO8                 JUNCTION        0.82          1.547        0.000
  CSO10                JUNCTION        0.31          0.560        0.000
  J4                   JUNCTION        0.93          1.141        0.559
  
  
  *********************
  Node Flooding Summary
  *********************
  
  Flooding refers to all water that overflows a node, whether it ponds or not.
  --------------------------------------------------------------------------
                                                             Total   Maximum
                                 Maximum   Time of Max       Flood    Ponded
                        Hours       Rate    Occurrence      Volume     Depth
  Node                 Flooded       CMS   days hr:min    10^6 ltr    Meters
  --------------------------------------------------------------------------
  CSO7                    0.80     0.042      0  19:11       0.051     0.000
  CSO9                    0.32     0.082      0  18:11       0.026     0.000
  CSO8                    0.07     0.072      0  19:16       0.007     0.000
  CSO10                   0.18     0.214      0  18:21       0.049     0.000
  T5                      1.70     0.200      0  19:42       0.706     0.000
  T4                      2.02     0.173      0  19:42       0.317     0.000
  T6                      2.81     0.686      0  18:17       3.459     0.000
  T3                      0.92     0.858      0  19:41       0.797     0.000
  T2                      1.21     0.385      0  19:37       0.565     0.000
  T1                      2.58     0.852      0  18:29       3.016     0.000
  
  
  **********************
  Storage Volume Summary
  **********************
  
  --------------------------------------------------------------------------------------------------
                         Average     Avg  Evap Exfil       Maximum     Max    Time of Max    Maximum
                          Volume    Pcnt  Pcnt  Pcnt        Volume    Pcnt     Occurrence    Outflow
  Storage Unit           1000 m3    Full  Loss  Loss       1000 m3    Full    days hr:min        CMS
  --------------------------------------------------------------------------------------------------
  T5                       0.158      32     0     0         0.500     100       0  18:49      0.039
  T4                       0.148      30     0     0         0.500     100       0  19:42      0.028
  T6                       0.234      39     0     0         0.600     100       0  18:16      0.075
  T3                       0.827      32     0     0         2.600     100       0  19:36      0.124
  T2                       0.296      30     0     0         1.000     100       0  19:31      0.033
  T1                       0.222      32     0     0         0.700     100       0  18:29      0.271
  
  
  ***********************
  Outfall Loading Summary
  ***********************
  
  -----------------------------------------------------------
                         Flow       Avg       Max       Total
                         Freq      Flow      Flow      Volume
  Outfall Node           Pcnt       CMS       CMS    10^6 ltr
  -----------------------------------------------------------
  Out_to_WWTP           99.43     0.120     0.271      10.190
  -----------------------------------------------------------
  System                99.43     0.120     0.271      10.190
  
  
  ********************
  Link Flow Summary
  ********************
  
  -----------------------------------------------------------------------------
                                 Maximum  Time of Max   Maximum    Max/    Max/
                                  |Flow|   Occurrence   |Veloc|    Full    Full
  Link                 Type          CMS  days hr:min     m/sec    Flow   Depth
  -----------------------------------------------------------------------------
  C1                   CONDUIT     0.039     0  19:37      0.97    0.01    0.11
  C6                   CONDUIT     0.071     0  19:12      1.29    1.13    0.76
  C2                   CONDUIT     0.028     0  22:07      0.99    0.03    0.17
  C9                   CONDUIT     0.127     0  18:23      1.29    0.43    0.51
  C16                  CONDUIT     0.468     0  19:23      1.74    0.04    0.14
  C3                   CONDUIT     0.124     0  19:39      1.81    0.05    0.14
  C19                  CONDUIT     0.033     0  20:31      0.69    0.01    0.22
  C11                  CONDUIT     0.188     0  22:09      1.79    0.01    0.12
  C20                  CONDUIT     1.320     0  18:21      4.63    0.04    0.16
  C22                  CONDUIT     0.202     0  18:29      1.51    0.09    0.34
  C12                  CONDUIT     0.075     0  19:48      0.98    0.01    0.29
  C17                  CONDUIT     0.805     0  19:22      2.74    0.04    0.32
  C10                  CONDUIT     0.761     0  18:17      0.94    0.08    0.59
  C13                  CONDUIT     0.981     0  19:41      0.85    0.06    0.76
  C18                  CONDUIT     0.634     0  19:11      1.01    0.02    0.55
  C23                  CONDUIT     1.262     0  18:25      1.08    0.14    0.63
  C4                   CONDUIT     0.590     0  18:21      1.14    0.14    0.63
  C7                   CONDUIT     0.216     0  19:12      0.83    0.05    0.58
  C14                  CONDUIT     0.271     0  18:31      2.08    0.02    0.09
  C5                   CONDUIT     0.085     0  19:01      1.67    1.45    1.00
  C8                   CONDUIT     0.127     0  18:22      1.83    1.60    0.86
  C15                  CONDUIT     0.485     0  19:22      3.51    1.54    0.82
  C21                  CONDUIT     0.202     0  18:29      1.87    1.16    0.69
  V4                   ORIFICE     0.028     0  22:00                      0.35
  V5                   ORIFICE     0.039     0  18:50                      1.00
  V1                   ORIFICE     0.271     0  18:29                      1.00
  V6                   ORIFICE     0.075     0  18:16                      0.43
  V3                   ORIFICE     0.124     0  19:36                      0.65
  V2                   ORIFICE     0.033     0  19:31                      0.24
  
  
  ***************************
  Flow Classification Summary
  ***************************
  
  -------------------------------------------------------------------------------------
                      Adjusted    ---------- Fraction of Time in Flow Class ---------- 
                       /Actual         Up    Down  Sub   Sup   Up    Down  Norm  Inlet 
  Conduit               Length    Dry  Dry   Dry   Crit  Crit  Crit  Crit  Ltd   Ctrl  
  -------------------------------------------------------------------------------------
  C1                      1.00   0.00  0.00  0.00  0.45  0.55  0.00  0.00  0.96  0.00
  C6                      1.00   0.00  0.00  0.00  0.05  0.95  0.00  0.00  0.00  0.00
  C2                      1.00   0.00  0.00  0.00  0.74  0.26  0.00  0.00  0.97  0.00
  C9                      1.00   0.00  0.00  0.00  1.00  0.00  0.00  0.00  1.00  0.00
  C16                     1.00   0.00  0.25  0.00  0.50  0.24  0.00  0.00  0.24  0.00
  C3                      1.00   0.00  0.00  0.00  0.03  0.96  0.00  0.00  0.26  0.00
  C19                     1.00   0.00  0.00  0.00  1.00  0.00  0.00  0.00  1.00  0.00
  C11                     1.00   0.00  0.00  0.00  0.13  0.87  0.00  0.00  1.00  0.00
  C20                     1.00   0.00  0.00  0.00  0.79  0.21  0.00  0.00  0.99  0.00
  C22                     1.00   0.00  0.00  0.00  0.92  0.08  0.00  0.00  1.00  0.00
  C12                     1.00   0.00  0.00  0.00  0.45  0.55  0.00  0.00  1.00  0.00
  C17                     1.00   0.00  0.00  0.00  0.56  0.44  0.00  0.00  0.98  0.00
  C10                     1.00   0.00  0.00  0.00  0.83  0.17  0.00  0.00  0.98  0.00
  C13                     1.00   0.00  0.00  0.00  0.81  0.19  0.00  0.00  0.73  0.00
  C18                     1.00   0.00  0.00  0.00  0.94  0.06  0.00  0.00  0.98  0.00
  C23                     1.00   0.00  0.00  0.00  0.77  0.23  0.00  0.00  0.96  0.00
  C4                      1.00   0.00  0.00  0.00  0.82  0.18  0.00  0.00  0.98  0.00
  C7                      1.00   0.00  0.00  0.00  0.91  0.09  0.00  0.00  0.97  0.00
  C14                     1.00   0.00  0.00  0.00  0.00  1.00  0.00  0.00  0.46  0.00
  C5                      1.00   0.00  0.00  0.00  0.93  0.07  0.00  0.00  0.94  0.00
  C8                      1.00   0.00  0.00  0.00  0.28  0.72  0.00  0.00  0.00  0.00
  C15                     1.00   0.25  0.00  0.00  0.00  0.75  0.00  0.00  0.00  0.00
  C21                     1.00   0.00  0.00  0.00  0.00  1.00  0.00  0.00  0.00  0.00
  
  
  *************************
  Conduit Surcharge Summary
  *************************
  
  ----------------------------------------------------------------------------
                                                           Hours        Hours 
                         --------- Hours Full --------   Above Full   Capacity
  Conduit                Both Ends  Upstream  Dnstream   Normal Flow   Limited
  ----------------------------------------------------------------------------
  C6                          0.01      0.93      0.01      0.83         0.01
  C10                         0.01      0.01     11.26      0.01         0.01
  C13                         0.01      0.01      5.80      0.01         0.01
  C18                         0.01      0.01      5.01      0.01         0.01
  C23                         0.01      0.01      8.23      0.01         0.01
  C4                          0.01      0.01     11.34      0.01         0.01
  C7                          0.01      0.01     11.07      0.01         0.01
  C5                          0.92      0.93      1.01      0.94         0.88
  C8                          0.01      1.59      0.01      1.59         0.01
  C15                         0.01      0.82      0.01      0.95         0.01
  C21                         0.01      0.31      0.01      0.27         0.01
  

  Analysis begun on:  Tue Sep 21 14:35:55 2021
  Analysis ended on:  Tue Sep 21 14:35:56 2021
  Total elapsed time: 00:00:01