
  EPA STORM WATER MANAGEMENT MODEL - VERSION 5.1 (Build 5.3.0.dev0)
  --------------------------------------------------------------

  
  *********************************************************
  NOTE: The summary statistics displayed in this report are
  based on results found at every computational time step,  
  not just on results from each reporting time step.
  *********************************************************
  
  ****************
  Analysis Options
  ****************
  Flow Units ............... CMS
  Process Models:
    Rainfall/Runoff ........ YES
    RDII ................... NO
    Snowmelt ............... NO
    Groundwater ............ NO
    Flow Routing ........... YES
    Ponding Allowed ........ YES
    Water Quality .......... NO
  Infiltration Method ...... HORTON
  Flow Routing Method ...... DYNWAVE
  Surcharge Method ......... EXTRAN
  Starting Date ............ 08/28/2015 08:00:00
  Ending Date .............. 08/28/2015 15:50:00
  Antecedent Dry Days ...... 0.0
  Report Time Step ......... 00:01:00
  Wet Time Step ............ 00:01:00
  Dry Time Step ............ 00:01:00
  Routing Time Step ........ 5.00 sec
  Variable Time Step ....... YES
  Maximum Trials ........... 8
  Number of Threads ........ 1
  Head Tolerance ........... 0.001500 m
  
  
  **************************        Volume         Depth
  Runoff Quantity Continuity     hectare-m            mm
  **************************     ---------       -------
  Total Precipitation ......         1.153         6.398
  Evaporation Loss .........         0.000         0.000
  Infiltration Loss ........         0.000         0.000
  Surface Runoff ...........         1.130         6.268
  Final Storage ............         0.023         0.130
  Continuity Error (%) .....        -0.008
  
  
  **************************        Volume        Volume
  Flow Routing Continuity        hectare-m      10^6 ltr
  **************************     ---------     ---------
  Dry Weather Inflow .......         0.396         3.955
  Wet Weather Inflow .......         1.129        11.295
  Groundwater Inflow .......         0.000         0.000
  RDII Inflow ..............         0.000         0.000
  External Inflow ..........         0.000         0.000
  External Outflow .........         0.547         5.468
  Flooding Loss ............         0.123         1.227
  Evaporation Loss .........         0.000         0.000
  Exfiltration Loss ........         0.000         0.000
  Initial Stored Volume ....         0.000         0.000
  Final Stored Volume ......         0.651         6.509
  Continuity Error (%) .....        13.424
  
  
  *************************
  Highest Continuity Errors
  *************************
  Node T2 (38.78%)
  Node T4 (24.40%)
  Node T5 (24.40%)
  Node T3 (21.34%)
  Node T6 (20.13%)
  
  
  ***************************
  Time-Step Critical Elements
  ***************************
  None
  
  
  ********************************
  Highest Flow Instability Indexes
  ********************************
  All links are stable.
  
  
  *************************
  Routing Time Step Summary
  *************************
  Minimum Time Step           :     4.50 sec
  Average Time Step           :     5.00 sec
  Maximum Time Step           :     5.00 sec
  Percent in Steady State     :     0.00
  Average Iterations per Step :     2.10
  Percent Not Converging      :     0.48
  
  
  ***************************
  Subcatchment Runoff Summary
  ***************************
  
  ------------------------------------------------------------------------------------------------------------------------------
                            Total      Total      Total      Total     Imperv       Perv      Total       Total     Peak  Runoff
                           Precip      Runon       Evap      Infil     Runoff     Runoff     Runoff      Runoff   Runoff   Coeff
  Subcatchment                 mm         mm         mm         mm         mm         mm         mm    10^6 ltr      CMS
  ------------------------------------------------------------------------------------------------------------------------------
  SC01                       6.40       0.00       0.00       0.00       6.31       0.00       6.31        2.08     0.50   0.987
  SC02                       6.40       0.00       0.00       0.00       6.31       0.00       6.31        1.43     0.34   0.986
  SC03                       6.40       0.00       0.00       0.00       6.33       0.00       6.33        1.14     0.28   0.989
  SC04                       6.40       0.00       0.00       0.00       6.20       0.00       6.20        0.43     0.09   0.970
  SC05                       6.40       0.00       0.00       0.00       6.31       0.00       6.31        0.98     0.23   0.986
  SC06                       6.40       0.00       0.00       0.00       6.15       0.00       6.15        2.00     0.41   0.962
  SC07                       6.40       0.00       0.00       0.00       6.21       0.00       6.21        0.29     0.06   0.970
  SC08                       6.40       0.00       0.00       0.00       6.28       0.00       6.28        1.76     0.40   0.982
  SC09                       6.40       0.00       0.00       0.00       6.26       0.00       6.26        0.43     0.10   0.978
  SC010                      6.40       0.00       0.00       0.00       6.29       0.00       6.29        0.74     0.17   0.982
  
  
  ******************
  Node Depth Summary
  ******************
  
  ---------------------------------------------------------------------------------
                                 Average  Maximum  Maximum  Time of Max    Reported
                                   Depth    Depth      HGL   Occurrence   Max Depth
  Node                 Type       Meters   Meters   Meters  days hr:min      Meters
  ---------------------------------------------------------------------------------
  J1                   JUNCTION     0.07     0.17    34.17     0  03:01        0.17
  J3                   JUNCTION     0.10     0.13    18.13     0  05:01        0.13
  CSO7                 JUNCTION     0.12     1.20    35.20     0  02:58        1.20
  J5                   JUNCTION     0.06     0.14    32.14     0  03:01        0.14
  CSO9                 JUNCTION     0.13     1.13    41.13     0  03:01        1.13
  J8                   JUNCTION     0.11     0.24    36.24     0  03:01        0.24
  CSO8                 JUNCTION     0.15     1.30    33.30     0  03:01        1.30
  J10                  JUNCTION     0.09     0.25    29.25     0  03:01        0.25
  J13                  JUNCTION     0.06     0.16    29.16     0  03:01        0.16
  J15                  JUNCTION     0.16     0.30    15.30     0  03:02        0.30
  J16                  JUNCTION     0.07     0.18    30.18     0  03:01        0.18
  CSO10                JUNCTION     0.12     0.40    30.40     0  03:01        0.40
  J12                  JUNCTION     0.13     0.28    26.28     0  03:03        0.28
  J4                   JUNCTION     0.13     1.17    34.17     0  02:58        0.76
  J6                   JUNCTION     0.05     0.07    25.07     0  05:05        0.07
  J2                   JUNCTION     0.06     0.08    25.08     0  03:59        0.08
  J19                  JUNCTION     0.14     0.17     8.17     0  03:00        0.17
  J9                   JUNCTION     0.09     0.11    29.11     0  04:19        0.11
  J14                  JUNCTION     0.11     0.14    20.14     0  07:29        0.14
  J17                  JUNCTION     0.05     0.07    20.07     0  07:31        0.07
  J7                   JUNCTION     0.08     0.20    39.20     0  03:01        0.20
  J11                  JUNCTION     0.10     0.27    31.27     0  03:01        0.27
  J18                  JUNCTION     0.05     0.15    29.15     0  03:02        0.15
  Out_to_WWTP          OUTFALL      0.14     0.17     6.17     0  04:05        0.17
  T5                   STORAGE      3.05     4.66    31.66     0  03:57        4.66
  T4                   STORAGE      2.62     4.06    31.06     0  05:03        4.06
  T6                   STORAGE      3.41     5.00    36.00     0  03:02        5.00
  T3                   STORAGE      2.61     3.97    25.97     0  05:31        3.97
  T2                   STORAGE      2.57     3.91    24.91     0  07:10        3.91
  T1                   STORAGE      3.18     5.00    15.00     0  02:58        5.00
  
  
  *******************
  Node Inflow Summary
  *******************
  
  -------------------------------------------------------------------------------------------------
                                  Maximum  Maximum                  Lateral       Total        Flow
                                  Lateral    Total  Time of Max      Inflow      Inflow     Balance
                                   Inflow   Inflow   Occurrence      Volume      Volume       Error
  Node                 Type           CMS      CMS  days hr:min    10^6 ltr    10^6 ltr     Percent
  -------------------------------------------------------------------------------------------------
  J1                   JUNCTION     0.256    0.256     0  03:01        1.55        1.55       0.032
  J3                   JUNCTION     0.000    0.173     0  04:59           0        3.29       1.035
  CSO7                 JUNCTION     0.074    0.074     0  03:01       0.585       0.585       0.078
  J5                   JUNCTION     0.096    0.166     0  03:01       0.556        1.14       0.140
  CSO9                 JUNCTION     0.104    0.104     0  03:01       0.628       0.628       0.072
  J8                   JUNCTION     0.445    0.543     0  03:01        2.94        3.57       0.147
  CSO8                 JUNCTION     0.412    0.412     0  03:01        2.05        2.05       0.028
  J10                  JUNCTION     0.300    0.696     0  03:01        1.52        3.57       0.144
  J13                  JUNCTION     0.359    0.359     0  03:01         1.9         1.9      -0.187
  J15                  JUNCTION     0.000    0.802     0  03:01           0        7.16       1.091
  J16                  JUNCTION     0.522    0.522     0  03:01        2.64        2.64       0.002
  CSO10                JUNCTION     0.175    0.175     0  03:01       0.877       0.877       0.047
  J12                  JUNCTION     0.000    0.753     0  03:01           0        5.16       0.485
  J4                   JUNCTION     0.000    0.070     0  03:01           0       0.584       0.581
  J6                   JUNCTION     0.000    0.025     0  05:03           0       0.483       0.481
  J2                   JUNCTION     0.000    0.038     0  03:57           0       0.793       0.627
  J19                  JUNCTION     0.000    0.271     0  02:59           0        5.48       0.205
  J9                   JUNCTION     0.000    0.075     0  03:02           0        1.61       1.075
  J14                  JUNCTION     0.000    0.110     0  05:31           0        2.03       0.338
  J17                  JUNCTION     0.000    0.029     0  07:20           0       0.402       1.472
  J7                   JUNCTION     0.000    0.104     0  03:01           0       0.627       0.506
  J11                  JUNCTION     0.000    0.412     0  03:01           0        2.05       0.297
  J18                  JUNCTION     0.000    0.173     0  03:01           0       0.877       0.106
  Out_to_WWTP          OUTFALL      0.000    0.271     0  03:00           0        5.47       0.000
  T5                   STORAGE      0.000    0.253     0  03:01           0        1.55      32.267
  T4                   STORAGE      0.000    0.164     0  03:01           0        1.13      32.281
  T6                   STORAGE      0.000    0.533     0  03:01           0        3.56      25.205
  T3                   STORAGE      0.000    0.733     0  03:03           0        5.13      27.130
  T2                   STORAGE      0.000    0.355     0  03:01           0        1.91      63.347
  T1                   STORAGE      0.000    0.770     0  03:02           0        7.09       9.368
  
  
  **********************
  Node Surcharge Summary
  **********************
  
  Surcharging occurs when water rises above the top of the highest conduit.
  ---------------------------------------------------------------------
                                               Max. Height   Min. Depth
                                   Hours       Above Crown    Below Rim
  Node                 Type      Surcharged         Meters       Meters
  ---------------------------------------------------------------------
  CSO7                 JUNCTION        0.25          0.945        0.000
  CSO9                 JUNCTION        0.30          0.811        0.871
  CSO8                 JUNCTION        0.24          0.846        0.701
  J4                   JUNCTION        0.21          0.870        0.830
  
  
  *********************
  Node Flooding Summary
  *********************
  
  Flooding refers to all water that overflows a node, whether it ponds or not.
  --------------------------------------------------------------------------
                                                             Total   Maximum
                                 Maximum   Time of Max       Flood    Ponded
                        Hours       Rate    Occurrence      Volume     Depth
  Node                 Flooded       CMS   days hr:min    10^6 ltr    Meters
  --------------------------------------------------------------------------
  CSO7                    0.07     0.004      0  02:58       0.000     0.000
  T6                      2.02     0.454      0  03:02       0.729     0.000
  T1                      0.87     0.499      0  03:02       0.497     0.000
  
  
  **********************
  Storage Volume Summary
  **********************
  
  --------------------------------------------------------------------------------------------------
                         Average     Avg  Evap Exfil       Maximum     Max    Time of Max    Maximum
                          Volume    Pcnt  Pcnt  Pcnt        Volume    Pcnt     Occurrence    Outflow
  Storage Unit           1000 m3    Full  Loss  Loss       1000 m3    Full    days hr:min        CMS
  --------------------------------------------------------------------------------------------------
  T5                       0.305      61     0     0         0.466      93       0  03:57      0.038
  T4                       0.262      52     0     0         0.406      81       0  05:03      0.025
  T6                       0.409      68     0     0         0.600     100       0  03:02      0.075
  T3                       1.358      52     0     0         2.063      79       0  05:31      0.110
  T2                       0.513      51     0     0         0.782      78       0  07:10      0.029
  T1                       0.446      64     0     0         0.700     100       0  02:58      0.271
  
  
  ***********************
  Outfall Loading Summary
  ***********************
  
  -----------------------------------------------------------
                         Flow       Avg       Max       Total
                         Freq      Flow      Flow      Volume
  Outfall Node           Pcnt       CMS       CMS    10^6 ltr
  -----------------------------------------------------------
  Out_to_WWTP           99.01     0.196     0.271       5.468
  -----------------------------------------------------------
  System                99.01     0.196     0.271       5.468
  
  
  ********************
  Link Flow Summary
  ********************
  
  -----------------------------------------------------------------------------
                                 Maximum  Time of Max   Maximum    Max/    Max/
                                  |Flow|   Occurrence   |Veloc|    Full    Full
  Link                 Type          CMS  days hr:min     m/sec    Flow   Depth
  -----------------------------------------------------------------------------
  C1                   CONDUIT     0.038     0  03:59      1.05    0.01    0.10
  C6                   CONDUIT     0.070     0  03:01      1.29    1.12    0.73
  C2                   CONDUIT     0.025     0  05:05      0.94    0.03    0.17
  C9                   CONDUIT     0.099     0  03:01      1.20    0.34    0.44
  C16                  CONDUIT     0.400     0  03:01      1.66    0.04    0.13
  C3                   CONDUIT     0.110     0  05:32      1.74    0.04    0.14
  C19                  CONDUIT     0.029     0  07:31      0.59    0.01    0.18
  C11                  CONDUIT     0.173     0  05:01      1.69    0.01    0.10
  C20                  CONDUIT     0.515     0  03:01      2.48    0.02    0.12
  C22                  CONDUIT     0.170     0  03:02      1.49    0.08    0.28
  C12                  CONDUIT     0.075     0  04:20      1.09    0.01    0.10
  C17                  CONDUIT     0.680     0  03:01      2.74    0.03    0.13
  C10                  CONDUIT     0.533     0  03:01      1.66    0.05    0.58
  C13                  CONDUIT     0.733     0  03:03      1.45    0.04    0.57
  C18                  CONDUIT     0.355     0  03:01      1.72    0.01    0.54
  C23                  CONDUIT     0.770     0  03:02      1.24    0.09    0.60
  C4                   CONDUIT     0.253     0  03:01      1.98    0.06    0.58
  C7                   CONDUIT     0.164     0  03:01      1.43    0.04    0.57
  C14                  CONDUIT     0.271     0  03:00      2.08    0.02    0.09
  C5                   CONDUIT     0.070     0  03:01      1.37    1.20    1.00
  C8                   CONDUIT     0.104     0  03:01      1.50    1.31    0.82
  C15                  CONDUIT     0.412     0  03:01      2.99    1.31    0.80
  C21                  CONDUIT     0.173     0  03:01      1.76    0.99    0.62
  V4                   ORIFICE     0.025     0  05:03                      0.35
  V5                   ORIFICE     0.038     0  03:57                      1.00
  V1                   ORIFICE     0.271     0  02:59                      1.00
  V6                   ORIFICE     0.075     0  03:02                      0.43
  V3                   ORIFICE     0.110     0  05:31                      0.65
  V2                   ORIFICE     0.029     0  07:20                      0.24
  
  
  ***************************
  Flow Classification Summary
  ***************************
  
  -------------------------------------------------------------------------------------
                      Adjusted    ---------- Fraction of Time in Flow Class ---------- 
                       /Actual         Up    Down  Sub   Sup   Up    Down  Norm  Inlet 
  Conduit               Length    Dry  Dry   Dry   Crit  Crit  Crit  Crit  Ltd   Ctrl  
  -------------------------------------------------------------------------------------
  C1                      1.00   0.00  0.00  0.00  0.00  1.00  0.00  0.00  0.94  0.00
  C6                      1.00   0.00  0.00  0.00  0.06  0.94  0.00  0.00  0.00  0.00
  C2                      1.00   0.00  0.00  0.00  0.63  0.37  0.00  0.00  0.95  0.00
  C9                      1.00   0.00  0.00  0.00  1.00  0.00  0.00  0.00  1.00  0.00
  C16                     1.00   0.00  0.00  0.00  0.57  0.43  0.00  0.00  0.44  0.00
  C3                      1.00   0.00  0.00  0.00  0.05  0.95  0.00  0.00  0.35  0.00
  C19                     1.00   0.00  0.00  0.00  1.00  0.00  0.00  0.00  1.00  0.00
  C11                     1.00   0.00  0.00  0.00  0.36  0.63  0.00  0.00  1.00  0.00
  C20                     1.00   0.00  0.00  0.00  0.53  0.47  0.00  0.00  0.98  0.00
  C22                     1.00   0.00  0.00  0.00  0.74  0.26  0.00  0.00  1.00  0.00
  C12                     1.00   0.00  0.00  0.00  0.49  0.50  0.00  0.00  1.00  0.00
  C17                     1.00   0.00  0.00  0.00  0.38  0.62  0.00  0.00  0.97  0.00
  C10                     1.00   0.00  0.00  0.00  0.96  0.04  0.00  0.00  0.97  0.00
  C13                     1.00   0.00  0.00  0.00  0.88  0.12  0.00  0.00  0.91  0.00
  C18                     1.00   0.00  0.00  0.00  0.94  0.06  0.00  0.00  0.97  0.00
  C23                     1.00   0.00  0.00  0.00  0.87  0.13  0.00  0.00  0.94  0.00
  C4                      1.00   0.00  0.00  0.00  0.96  0.04  0.00  0.00  0.98  0.00
  C7                      1.00   0.00  0.00  0.00  0.94  0.06  0.00  0.00  0.97  0.00
  C14                     1.00   0.00  0.00  0.00  0.00  0.99  0.00  0.00  0.24  0.00
  C5                      1.00   0.00  0.00  0.00  0.89  0.11  0.00  0.00  0.94  0.00
  C8                      1.00   0.00  0.00  0.00  0.09  0.91  0.00  0.00  0.00  0.00
  C15                     1.00   0.00  0.00  0.00  0.00  1.00  0.00  0.00  0.00  0.00
  C21                     1.00   0.00  0.00  0.00  0.00  1.00  0.00  0.00  0.00  0.00
  
  
  *************************
  Conduit Surcharge Summary
  *************************
  
  ----------------------------------------------------------------------------
                                                           Hours        Hours 
                         --------- Hours Full --------   Above Full   Capacity
  Conduit                Both Ends  Upstream  Dnstream   Normal Flow   Limited
  ----------------------------------------------------------------------------
  C6                          0.01      0.21      0.01      0.11         0.01
  C10                         0.01      0.01      5.67      0.01         0.01
  C13                         0.01      0.01      5.05      0.01         0.01
  C18                         0.01      0.01      5.11      0.01         0.01
  C23                         0.01      0.01      5.73      0.01         0.01
  C4                          0.01      0.01      5.89      0.01         0.01
  C7                          0.01      0.01      5.60      0.01         0.01
  C5                          0.25      0.25      0.38      0.34         0.23
  C8                          0.01      0.30      0.01      0.33         0.01
  C15                         0.01      0.24      0.01      0.33         0.01
  

  Analysis begun on:  Fri Sep  3 19:50:30 2021
  Analysis ended on:  Fri Sep  3 19:50:30 2021
  Total elapsed time: < 1 sec