
  EPA STORM WATER MANAGEMENT MODEL - VERSION 5.1 (Build 5.3.0.dev0)
  --------------------------------------------------------------

  WARNING 09: time series interval greater than recording interval for Rain Gage RG1
  WARNING 09: time series interval greater than recording interval for Rain Gage RG2
  WARNING 09: time series interval greater than recording interval for Rain Gage RG3
  WARNING 09: time series interval greater than recording interval for Rain Gage RG4
  
  *********************************************************
  NOTE: The summary statistics displayed in this report are
  based on results found at every computational time step,  
  not just on results from each reporting time step.
  *********************************************************
  
  ****************
  Analysis Options
  ****************
  Flow Units ............... CMS
  Process Models:
    Rainfall/Runoff ........ YES
    RDII ................... NO
    Snowmelt ............... NO
    Groundwater ............ NO
    Flow Routing ........... YES
    Ponding Allowed ........ YES
    Water Quality .......... NO
  Infiltration Method ...... HORTON
  Flow Routing Method ...... DYNWAVE
  Surcharge Method ......... EXTRAN
  Starting Date ............ 08/28/2015 00:00:00
  Ending Date .............. 08/28/2015 23:40:00
  Antecedent Dry Days ...... 0.0
  Report Time Step ......... 00:01:00
  Wet Time Step ............ 00:01:00
  Dry Time Step ............ 00:01:00
  Routing Time Step ........ 5.00 sec
  Variable Time Step ....... YES
  Maximum Trials ........... 8
  Number of Threads ........ 1
  Head Tolerance ........... 0.001500 m
  
  
  **************************        Volume         Depth
  Runoff Quantity Continuity     hectare-m            mm
  **************************     ---------       -------
  Total Precipitation ......         1.755         9.737
  Evaporation Loss .........         0.000         0.000
  Infiltration Loss ........         0.000         0.000
  Surface Runoff ...........         1.494         8.291
  Final Storage ............         0.268         1.488
  Continuity Error (%) .....        -0.424
  
  
  **************************        Volume        Volume
  Flow Routing Continuity        hectare-m      10^6 ltr
  **************************     ---------     ---------
  Dry Weather Inflow .......         0.758         7.576
  Wet Weather Inflow .......         1.489        14.893
  Groundwater Inflow .......         0.000         0.000
  RDII Inflow ..............         0.000         0.000
  External Inflow ..........         0.000         0.000
  External Outflow .........         0.748         7.485
  Flooding Loss ............         0.478         4.778
  Evaporation Loss .........         0.000         0.000
  Exfiltration Loss ........         0.000         0.000
  Initial Stored Volume ....         0.000         0.000
  Final Stored Volume ......         0.752         7.518
  Continuity Error (%) .....        11.960
  
  
  *************************
  Highest Continuity Errors
  *************************
  Node T2 (34.36%)
  Node T4 (20.52%)
  Node T3 (18.19%)
  Node T5 (16.96%)
  Node T6 (16.95%)
  
  
  ***************************
  Time-Step Critical Elements
  ***************************
  None
  
  
  ********************************
  Highest Flow Instability Indexes
  ********************************
  All links are stable.
  
  
  *************************
  Routing Time Step Summary
  *************************
  Minimum Time Step           :     1.42 sec
  Average Time Step           :     5.00 sec
  Maximum Time Step           :     5.00 sec
  Percent in Steady State     :     0.00
  Average Iterations per Step :     2.05
  Percent Not Converging      :     0.16
  
  
  ***************************
  Subcatchment Runoff Summary
  ***************************
  
  ------------------------------------------------------------------------------------------------------------------------------
                            Total      Total      Total      Total     Imperv       Perv      Total       Total     Peak  Runoff
                           Precip      Runon       Evap      Infil     Runoff     Runoff     Runoff      Runoff   Runoff   Coeff
  Subcatchment                 mm         mm         mm         mm         mm         mm         mm    10^6 ltr      CMS
  ------------------------------------------------------------------------------------------------------------------------------
  SC01                      12.52       0.00       0.00       0.00      11.62       0.00      11.62        3.83     2.27   0.928
  SC02                       8.03       0.00       0.00       0.00       7.11       0.00       7.11        1.62     0.79   0.885
  SC03                       6.95       0.00       0.00       0.00       6.32       0.00       6.32        1.14     0.94   0.909
  SC04                       8.03       0.00       0.00       0.00       6.07       0.00       6.07        0.42     0.17   0.755
  SC05                      12.52       0.00       0.00       0.00      11.52       0.00      11.52        1.80     1.01   0.920
  SC06                      10.22       0.00       0.00       0.00       7.33       0.00       7.33        2.39     1.22   0.717
  SC07                       8.03       0.00       0.00       0.00       6.07       0.00       6.07        0.29     0.11   0.756
  SC08                       6.95       0.00       0.00       0.00       5.60       0.00       5.60        1.57     0.83   0.806
  SC09                      10.22       0.00       0.00       0.00       8.36       0.00       8.36        0.58     0.36   0.818
  SC010                     12.52       0.00       0.00       0.00      11.21       0.00      11.21        1.32     0.65   0.895
  
  
  ******************
  Node Depth Summary
  ******************
  
  ---------------------------------------------------------------------------------
                                 Average  Maximum  Maximum  Time of Max    Reported
                                   Depth    Depth      HGL   Occurrence   Max Depth
  Node                 Type       Meters   Meters   Meters  days hr:min      Meters
  ---------------------------------------------------------------------------------
  J1                   JUNCTION     0.05     0.32    34.32     0  22:51        0.32
  J3                   JUNCTION     0.07     0.13    18.13     0  23:40        0.13
  CSO7                 JUNCTION     0.08     1.20    35.20     0  23:01        1.20
  J5                   JUNCTION     0.04     0.16    32.16     0  23:12        0.16
  CSO9                 JUNCTION     0.10     2.00    42.00     0  23:01        2.00
  J8                   JUNCTION     0.07     0.36    36.36     0  23:12        0.36
  CSO8                 JUNCTION     0.08     2.00    34.00     0  23:05        2.00
  J10                  JUNCTION     0.05     0.32    29.32     0  23:11        0.32
  J13                  JUNCTION     0.04     0.23    29.23     0  23:06        0.23
  J15                  JUNCTION     0.11     0.47    15.47     0  22:57        0.47
  J16                  JUNCTION     0.04     0.34    30.34     0  22:51        0.34
  CSO10                JUNCTION     0.09     1.00    31.00     0  22:45        1.00
  J12                  JUNCTION     0.08     0.34    26.34     0  23:13        0.34
  J4                   JUNCTION     0.09     1.57    34.57     0  23:05        0.75
  J6                   JUNCTION     0.04     0.07    25.07     0  23:40        0.07
  J2                   JUNCTION     0.05     0.08    25.08     0  23:40        0.08
  J19                  JUNCTION     0.09     0.17     8.17     0  22:59        0.17
  J9                   JUNCTION     0.07     0.11    29.11     0  23:40        0.11
  J14                  JUNCTION     0.07     0.14    20.14     0  23:40        0.14
  J17                  JUNCTION     0.04     0.06    20.06     0  23:00        0.06
  J7                   JUNCTION     0.05     0.23    39.23     0  23:28        0.23
  J11                  JUNCTION     0.05     0.30    31.30     0  23:22        0.30
  J18                  JUNCTION     0.03     0.16    29.16     0  23:26        0.16
  Out_to_WWTP          OUTFALL      0.09     0.17     6.17     0  22:58        0.17
  T5                   STORAGE      0.90     5.00    32.00     0  23:03        5.00
  T4                   STORAGE      0.79     4.10    31.10     0  23:40        4.10
  T6                   STORAGE      1.03     5.00    36.00     0  23:17        5.00
  T3                   STORAGE      0.79     3.93    25.93     0  23:40        3.93
  T2                   STORAGE      0.78     4.54    25.54     0  23:40        4.54
  T1                   STORAGE      0.80     5.00    15.00     0  22:58        5.00
  
  
  *******************
  Node Inflow Summary
  *******************
  
  -------------------------------------------------------------------------------------------------
                                  Maximum  Maximum                  Lateral       Total        Flow
                                  Lateral    Total  Time of Max      Inflow      Inflow     Balance
                                   Inflow   Inflow   Occurrence      Volume      Volume       Error
  Node                 Type           CMS      CMS  days hr:min    10^6 ltr    10^6 ltr     Percent
  -------------------------------------------------------------------------------------------------
  J1                   JUNCTION     1.014    1.014     0  22:51        2.89        2.89       0.305
  J3                   JUNCTION     0.000    0.174     0  23:40           0        4.87       0.734
  CSO7                 JUNCTION     0.115    0.115     0  23:11       0.852       0.852       0.196
  J5                   JUNCTION     0.166    0.237     0  23:11       0.665        1.48       0.833
  CSO9                 JUNCTION     0.361    0.361     0  23:11       0.956       0.956       0.367
  J8                   JUNCTION     1.224    1.347     0  23:11         4.2        5.01       1.171
  CSO8                 JUNCTION     0.826    0.826     0  23:06        2.01        2.01       0.192
  J10                  JUNCTION     0.943    1.192     0  23:11        1.89        3.69       1.369
  J13                  JUNCTION     0.790    0.790     0  23:06        2.52        2.52       0.497
  J15                  JUNCTION     0.000    2.397     0  22:51           0        11.6       1.466
  J16                  JUNCTION     2.270    2.270     0  22:51        4.91        4.91       0.274
  CSO10                JUNCTION     0.650    0.650     0  22:51        1.58        1.58       0.231
  J12                  JUNCTION     0.000    1.151     0  23:12           0        6.17       1.993
  J4                   JUNCTION     0.000    0.084     0  23:02           0       0.825       1.631
  J6                   JUNCTION     0.000    0.025     0  23:40           0       0.754       0.519
  J2                   JUNCTION     0.000    0.039     0  23:03           0        1.22       0.471
  J19                  JUNCTION     0.000    0.271     0  22:58           0         7.5       0.169
  J9                   JUNCTION     0.000    0.075     0  23:17           0        2.54       0.685
  J14                  JUNCTION     0.000    0.109     0  23:40           0        2.91       0.231
  J17                  JUNCTION     0.000    0.021     0  23:00           0       0.739       0.417
  J7                   JUNCTION     0.000    0.127     0  23:28           0       0.829       2.424
  J11                  JUNCTION     0.000    0.486     0  23:22           0        1.86       2.728
  J18                  JUNCTION     0.000    0.202     0  23:26           0        1.13       1.316
  Out_to_WWTP          OUTFALL      0.000    0.271     0  22:59           0        7.49       0.000
  T5                   STORAGE      0.000    0.930     0  22:51           0        2.88      20.428
  T4                   STORAGE      0.000    0.227     0  23:12           0        1.46      25.820
  T6                   STORAGE      0.000    1.229     0  23:12           0        4.95      20.410
  T3                   STORAGE      0.000    1.076     0  23:13           0        6.05      22.231
  T2                   STORAGE      0.000    0.726     0  23:06           0        2.51      52.345
  T1                   STORAGE      0.000    1.956     0  22:57           0        11.4       7.719
  
  
  **********************
  Node Surcharge Summary
  **********************
  
  Surcharging occurs when water rises above the top of the highest conduit.
  ---------------------------------------------------------------------
                                               Max. Height   Min. Depth
                                   Hours       Above Crown    Below Rim
  Node                 Type      Surcharged         Meters       Meters
  ---------------------------------------------------------------------
  CSO7                 JUNCTION        0.52          0.945        0.000
  CSO9                 JUNCTION        0.64          1.682        0.000
  CSO8                 JUNCTION        0.45          1.547        0.000
  CSO10                JUNCTION        0.75          0.560        0.000
  J4                   JUNCTION        0.48          1.269        0.431
  
  
  *********************
  Node Flooding Summary
  *********************
  
  Flooding refers to all water that overflows a node, whether it ponds or not.
  --------------------------------------------------------------------------
                                                             Total   Maximum
                                 Maximum   Time of Max       Flood    Ponded
                        Hours       Rate    Occurrence      Volume     Depth
  Node                 Flooded       CMS   days hr:min    10^6 ltr    Meters
  --------------------------------------------------------------------------
  CSO7                    0.38     0.044      0  23:11       0.026     0.000
  CSO9                    0.41     0.234      0  23:11       0.124     0.000
  CSO8                    0.28     0.359      0  23:06       0.147     0.000
  CSO10                   0.70     0.448      0  22:51       0.446     0.000
  T5                      0.61     0.660      0  23:06       0.666     0.000
  T6                      0.37     1.086      0  23:17       0.972     0.000
  T1                      0.70     1.682      0  22:58       2.401     0.000
  
  
  **********************
  Storage Volume Summary
  **********************
  
  --------------------------------------------------------------------------------------------------
                         Average     Avg  Evap Exfil       Maximum     Max    Time of Max    Maximum
                          Volume    Pcnt  Pcnt  Pcnt        Volume    Pcnt     Occurrence    Outflow
  Storage Unit           1000 m3    Full  Loss  Loss       1000 m3    Full    days hr:min        CMS
  --------------------------------------------------------------------------------------------------
  T5                       0.090      18     0     0         0.500     100       0  23:03      0.039
  T4                       0.079      16     0     0         0.410      82       0  23:40      0.025
  T6                       0.124      21     0     0         0.600     100       0  23:17      0.075
  T3                       0.413      16     0     0         2.041      79       0  23:40      0.109
  T2                       0.156      16     0     0         0.909      91       0  23:40      0.021
  T1                       0.112      16     0     0         0.700     100       0  22:58      0.271
  
  
  ***********************
  Outfall Loading Summary
  ***********************
  
  -----------------------------------------------------------
                         Flow       Avg       Max       Total
                         Freq      Flow      Flow      Volume
  Outfall Node           Pcnt       CMS       CMS    10^6 ltr
  -----------------------------------------------------------
  Out_to_WWTP           99.43     0.088     0.271       7.485
  -----------------------------------------------------------
  System                99.43     0.088     0.271       7.485
  
  
  ********************
  Link Flow Summary
  ********************
  
  -----------------------------------------------------------------------------
                                 Maximum  Time of Max   Maximum    Max/    Max/
                                  |Flow|   Occurrence   |Veloc|    Full    Full
  Link                 Type          CMS  days hr:min     m/sec    Flow   Depth
  -----------------------------------------------------------------------------
  C1                   CONDUIT     0.039     0  23:40      1.02    0.01    0.10
  C6                   CONDUIT     0.071     0  23:12      1.28    1.14    0.77
  C2                   CONDUIT     0.025     0  23:40      0.81    0.03    0.17
  C9                   CONDUIT     0.127     0  23:29      1.24    0.43    0.59
  C16                  CONDUIT     0.484     0  23:17      1.78    0.05    0.15
  C3                   CONDUIT     0.109     0  23:40      1.70    0.04    0.14
  C19                  CONDUIT     0.021     0  23:00      0.55    0.01    0.27
  C11                  CONDUIT     0.172     0  23:40      1.41    0.01    0.15
  C20                  CONDUIT     2.069     0  22:51      4.99    0.06    0.20
  C22                  CONDUIT     0.202     0  23:26      1.53    0.09    0.40
  C12                  CONDUIT     0.075     0  23:40      0.97    0.01    0.11
  C17                  CONDUIT     1.092     0  23:11      3.56    0.05    0.16
  C10                  CONDUIT     1.229     0  23:12      1.07    0.13    0.62
  C13                  CONDUIT     1.076     0  23:13      0.85    0.06    0.59
  C18                  CONDUIT     0.726     0  23:06      1.01    0.03    0.56
  C23                  CONDUIT     1.956     0  22:57      1.59    0.22    0.66
  C4                   CONDUIT     0.930     0  22:51      1.69    0.23    0.66
  C7                   CONDUIT     0.227     0  23:12      0.83    0.06    0.58
  C14                  CONDUIT     0.271     0  22:59      2.08    0.02    0.09
  C5                   CONDUIT     0.084     0  23:02      1.67    1.44    1.00
  C8                   CONDUIT     0.127     0  23:28      1.93    1.60    0.86
  C15                  CONDUIT     0.486     0  23:22      3.63    1.55    0.83
  C21                  CONDUIT     0.202     0  23:26      1.87    1.16    0.69
  V4                   ORIFICE     0.025     0  23:40                      0.35
  V5                   ORIFICE     0.039     0  23:03                      1.00
  V1                   ORIFICE     0.271     0  22:58                      1.00
  V6                   ORIFICE     0.075     0  23:17                      0.43
  V3                   ORIFICE     0.109     0  23:40                      0.65
  V2                   ORIFICE     0.021     0  23:00                      0.24
  
  
  ***************************
  Flow Classification Summary
  ***************************
  
  -------------------------------------------------------------------------------------
                      Adjusted    ---------- Fraction of Time in Flow Class ---------- 
                       /Actual         Up    Down  Sub   Sup   Up    Down  Norm  Inlet 
  Conduit               Length    Dry  Dry   Dry   Crit  Crit  Crit  Crit  Ltd   Ctrl  
  -------------------------------------------------------------------------------------
  C1                      1.00   0.00  0.00  0.00  0.38  0.62  0.00  0.00  0.96  0.00
  C6                      1.00   0.00  0.00  0.00  0.03  0.97  0.00  0.00  0.00  0.00
  C2                      1.00   0.00  0.00  0.00  0.58  0.42  0.00  0.00  0.97  0.00
  C9                      1.00   0.00  0.00  0.00  1.00  0.00  0.00  0.00  1.00  0.00
  C16                     1.00   0.00  0.25  0.00  0.61  0.14  0.00  0.00  0.56  0.00
  C3                      1.00   0.00  0.00  0.00  0.03  0.96  0.00  0.00  0.42  0.00
  C19                     1.00   0.00  0.00  0.00  1.00  0.00  0.00  0.00  1.00  0.00
  C11                     1.00   0.00  0.00  0.00  0.09  0.90  0.00  0.00  1.00  0.00
  C20                     1.00   0.00  0.00  0.00  0.84  0.16  0.00  0.00  0.99  0.00
  C22                     1.00   0.00  0.00  0.00  0.98  0.02  0.00  0.00  1.00  0.00
  C12                     1.00   0.00  0.00  0.00  0.23  0.77  0.00  0.00  0.95  0.00
  C17                     1.00   0.00  0.00  0.00  0.39  0.61  0.00  0.00  0.98  0.00
  C10                     1.00   0.00  0.00  0.00  0.83  0.17  0.00  0.00  0.98  0.00
  C13                     1.00   0.00  0.00  0.00  0.81  0.19  0.00  0.00  0.92  0.00
  C18                     1.00   0.00  0.00  0.00  0.94  0.06  0.00  0.00  0.98  0.00
  C23                     1.00   0.00  0.00  0.00  0.77  0.23  0.00  0.00  0.96  0.00
  C4                      1.00   0.00  0.00  0.00  0.82  0.18  0.00  0.00  0.98  0.00
  C7                      1.00   0.00  0.00  0.00  0.91  0.09  0.00  0.00  0.97  0.00
  C14                     1.00   0.00  0.00  0.00  0.00  1.00  0.00  0.00  0.50  0.00
  C5                      1.00   0.00  0.00  0.00  0.92  0.08  0.00  0.00  0.96  0.00
  C8                      1.00   0.00  0.00  0.00  0.18  0.82  0.00  0.00  0.00  0.00
  C15                     1.00   0.25  0.00  0.00  0.00  0.75  0.00  0.00  0.01  0.00
  C21                     1.00   0.00  0.00  0.00  0.00  1.00  0.00  0.00  0.00  0.00
  
  
  *************************
  Conduit Surcharge Summary
  *************************
  
  ----------------------------------------------------------------------------
                                                           Hours        Hours 
                         --------- Hours Full --------   Above Full   Capacity
  Conduit                Both Ends  Upstream  Dnstream   Normal Flow   Limited
  ----------------------------------------------------------------------------
  C6                          0.01      0.48      0.01      0.40         0.01
  C10                         0.01      0.01      7.43      0.01         0.01
  C13                         0.01      0.01      0.63      0.01         0.01
  C18                         0.01      0.01      0.68      0.01         0.01
  C23                         0.01      0.01      3.05      0.01         0.01
  C4                          0.01      0.01     10.00      0.01         0.01
  C7                          0.01      0.01      9.30      0.01         0.01
  C5                          0.48      0.52      0.57      0.51         0.46
  C8                          0.01      0.64      0.01      0.65         0.01
  C15                         0.01      0.45      0.01      0.46         0.01
  C21                         0.01      0.75      0.01      0.74         0.01
  

  Analysis begun on:  Tue Sep 21 12:35:46 2021
  Analysis ended on:  Tue Sep 21 12:35:47 2021
  Total elapsed time: 00:00:01