
  EPA STORM WATER MANAGEMENT MODEL - VERSION 5.1 (Build 5.3.0.dev0)
  --------------------------------------------------------------

  WARNING 09: time series interval greater than recording interval for Rain Gage RG1
  WARNING 09: time series interval greater than recording interval for Rain Gage RG2
  WARNING 09: time series interval greater than recording interval for Rain Gage RG3
  WARNING 09: time series interval greater than recording interval for Rain Gage RG4
  
  *********************************************************
  NOTE: The summary statistics displayed in this report are
  based on results found at every computational time step,  
  not just on results from each reporting time step.
  *********************************************************
  
  ****************
  Analysis Options
  ****************
  Flow Units ............... CMS
  Process Models:
    Rainfall/Runoff ........ YES
    RDII ................... NO
    Snowmelt ............... NO
    Groundwater ............ NO
    Flow Routing ........... YES
    Ponding Allowed ........ YES
    Water Quality .......... NO
  Infiltration Method ...... HORTON
  Flow Routing Method ...... DYNWAVE
  Surcharge Method ......... EXTRAN
  Starting Date ............ 08/28/2015 00:00:00
  Ending Date .............. 08/28/2015 23:40:00
  Antecedent Dry Days ...... 0.0
  Report Time Step ......... 00:01:00
  Wet Time Step ............ 00:01:00
  Dry Time Step ............ 00:01:00
  Routing Time Step ........ 5.00 sec
  Variable Time Step ....... YES
  Maximum Trials ........... 8
  Number of Threads ........ 1
  Head Tolerance ........... 0.001500 m
  
  
  **************************        Volume         Depth
  Runoff Quantity Continuity     hectare-m            mm
  **************************     ---------       -------
  Total Precipitation ......         2.444        13.560
  Evaporation Loss .........         0.000         0.000
  Infiltration Loss ........         0.000         0.000
  Surface Runoff ...........         2.326        12.909
  Final Storage ............         0.119         0.662
  Continuity Error (%) .....        -0.078
  
  
  **************************        Volume        Volume
  Flow Routing Continuity        hectare-m      10^6 ltr
  **************************     ---------     ---------
  Dry Weather Inflow .......         0.758         7.576
  Wet Weather Inflow .......         2.325        23.250
  Groundwater Inflow .......         0.000         0.000
  RDII Inflow ..............         0.000         0.000
  External Inflow ..........         0.000         0.000
  External Outflow .........         1.710        17.104
  Flooding Loss ............         0.524         5.239
  Evaporation Loss .........         0.000         0.000
  Exfiltration Loss ........         0.000         0.000
  Initial Stored Volume ....         0.000         0.000
  Final Stored Volume ......         0.674         6.745
  Continuity Error (%) .....         5.641
  
  
  *************************
  Highest Continuity Errors
  *************************
  Node T2 (20.62%)
  Node T3 (10.90%)
  Node T4 (9.65%)
  Node T5 (6.99%)
  Node T6 (5.94%)
  
  
  ***************************
  Time-Step Critical Elements
  ***************************
  None
  
  
  ********************************
  Highest Flow Instability Indexes
  ********************************
  Link C15 (1)
  
  
  *************************
  Routing Time Step Summary
  *************************
  Minimum Time Step           :     4.50 sec
  Average Time Step           :     5.00 sec
  Maximum Time Step           :     5.00 sec
  Percent in Steady State     :     0.00
  Average Iterations per Step :     2.00
  Percent Not Converging      :     0.00
  
  
  ***************************
  Subcatchment Runoff Summary
  ***************************
  
  ------------------------------------------------------------------------------------------------------------------------------
                            Total      Total      Total      Total     Imperv       Perv      Total       Total     Peak  Runoff
                           Precip      Runon       Evap      Infil     Runoff     Runoff     Runoff      Runoff   Runoff   Coeff
  Subcatchment                 mm         mm         mm         mm         mm         mm         mm    10^6 ltr      CMS
  ------------------------------------------------------------------------------------------------------------------------------
  SC01                      13.16       0.00       0.00       0.00      12.67       0.00      12.67        4.18     0.20   0.963
  SC02                      11.72       0.00       0.00       0.00      11.18       0.00      11.18        2.54     0.14   0.954
  SC03                      13.24       0.00       0.00       0.00      12.92       0.00      12.92        2.32     0.15   0.976
  SC04                      11.72       0.00       0.00       0.00      10.91       0.00      10.91        0.75     0.04   0.931
  SC05                      13.16       0.00       0.00       0.00      12.64       0.00      12.64        1.97     0.09   0.960
  SC06                      16.15       0.00       0.00       0.00      15.04       0.00      15.04        4.89     0.21   0.931
  SC07                      11.72       0.00       0.00       0.00      10.91       0.00      10.91        0.52     0.02   0.931
  SC08                      13.24       0.00       0.00       0.00      12.66       0.00      12.66        3.55     0.19   0.956
  SC09                      16.15       0.00       0.00       0.00      15.30       0.00      15.30        1.06     0.05   0.947
  SC010                     13.16       0.00       0.00       0.00      12.56       0.00      12.56        1.48     0.07   0.955
  
  
  ******************
  Node Depth Summary
  ******************
  
  ---------------------------------------------------------------------------------
                                 Average  Maximum  Maximum  Time of Max    Reported
                                   Depth    Depth      HGL   Occurrence   Max Depth
  Node                 Type       Meters   Meters   Meters  days hr:min      Meters
  ---------------------------------------------------------------------------------
  J1                   JUNCTION     0.06     0.11    34.11     0  07:12        0.11
  J3                   JUNCTION     0.11     0.14    18.14     0  14:11        0.14
  CSO7                 JUNCTION     0.08     0.14    34.14     0  08:06        0.14
  J5                   JUNCTION     0.05     0.09    32.09     0  08:07        0.09
  CSO9                 JUNCTION     0.10     0.20    40.20     0  07:22        0.20
  J8                   JUNCTION     0.10     0.17    36.17     0  08:02        0.17
  CSO8                 JUNCTION     0.11     0.28    32.28     0  07:01        0.27
  J10                  JUNCTION     0.08     0.17    29.17     0  07:07        0.17
  J13                  JUNCTION     0.05     0.10    29.10     0  06:52        0.10
  J15                  JUNCTION     0.16     0.23    15.23     0  11:53        0.23
  J16                  JUNCTION     0.06     0.11    30.11     0  07:12        0.11
  CSO10                JUNCTION     0.10     0.21    30.21     0  07:11        0.21
  J12                  JUNCTION     0.50     1.00    27.00     0  12:35        1.00
  J4                   JUNCTION     0.09     0.16    33.16     0  08:08        0.16
  J6                   JUNCTION     0.05     0.07    25.07     0  13:11        0.07
  J2                   JUNCTION     0.06     0.08    25.08     0  11:01        0.08
  J19                  JUNCTION     0.14     0.17     8.17     0  08:24        0.17
  J9                   JUNCTION     0.09     0.11    29.11     0  09:07        0.11
  J14                  JUNCTION     0.12     0.15    20.15     0  14:01        0.15
  J17                  JUNCTION     0.06     0.08    20.08     0  12:32        0.08
  J7                   JUNCTION     0.08     0.14    39.14     0  07:28        0.14
  J11                  JUNCTION     0.08     0.19    31.19     0  07:08        0.19
  J18                  JUNCTION     0.05     0.09    29.09     0  07:33        0.09
  Out_to_WWTP          OUTFALL      0.14     0.17     6.17     0  12:56        0.17
  T5                   STORAGE      2.82     5.00    32.00     0  10:15        5.00
  T4                   STORAGE      2.91     5.00    32.00     0  11:34        5.00
  T6                   STORAGE      3.22     5.00    36.00     0  07:50        5.00
  T3                   STORAGE      3.34     5.00    27.00     0  12:29        5.00
  T2                   STORAGE      3.05     5.00    26.00     0  11:20        5.00
  T1                   STORAGE      3.19     5.00    15.00     0  08:22        5.00
  
  
  *******************
  Node Inflow Summary
  *******************
  
  -------------------------------------------------------------------------------------------------
                                  Maximum  Maximum                  Lateral       Total        Flow
                                  Lateral    Total  Time of Max      Inflow      Inflow     Balance
                                   Inflow   Inflow   Occurrence      Volume      Volume       Error
  Node                 Type           CMS      CMS  days hr:min    10^6 ltr    10^6 ltr     Percent
  -------------------------------------------------------------------------------------------------
  J1                   JUNCTION     0.109    0.109     0  11:41        3.06        3.06       0.107
  J3                   JUNCTION     0.000    0.190     0  14:02           0        11.3       0.301
  CSO7                 JUNCTION     0.033    0.033     0  08:06        1.08        1.08       0.050
  J5                   JUNCTION     0.039    0.070     0  08:06           1        2.08       0.179
  CSO9                 JUNCTION     0.053    0.053     0  07:21        1.44        1.44       0.080
  J8                   JUNCTION     0.233    0.279     0  08:01        6.72        8.15       0.231
  CSO8                 JUNCTION     0.202    0.202     0  07:01        3.99        3.99       0.038
  J10                  JUNCTION     0.157    0.327     0  07:06        3.07        7.05       0.200
  J13                  JUNCTION     0.150    0.150     0  06:51        3.45        3.45       0.127
  J15                  JUNCTION     0.000    0.460     0  11:42           0          20       0.505
  J16                  JUNCTION     0.212    0.212     0  07:11        5.26        5.26       0.116
  CSO10                JUNCTION     0.070    0.070     0  07:11        1.75        1.75       0.083
  J12                  JUNCTION     0.000    0.375     0  07:07           0        11.9       2.991
  J4                   JUNCTION     0.000    0.032     0  08:06           0        1.08       0.373
  J6                   JUNCTION     0.000    0.028     0  12:30           0        1.46       0.235
  J2                   JUNCTION     0.000    0.039     0  10:15           0        2.32       0.176
  J19                  JUNCTION     0.000    0.271     0  08:23           0        17.1       0.066
  J9                   JUNCTION     0.000    0.075     0  07:50           0        4.86       0.259
  J14                  JUNCTION     0.000    0.124     0  14:00           0        7.57       0.095
  J17                  JUNCTION     0.000    0.033     0  11:30           0        1.74       0.338
  J7                   JUNCTION     0.000    0.051     0  07:22           0        1.44       0.513
  J11                  JUNCTION     0.000    0.200     0  07:01           0        3.99       0.407
  J18                  JUNCTION     0.000    0.068     0  07:12           0        1.74       0.298
  Out_to_WWTP          OUTFALL      0.000    0.271     0  08:24           0        17.1       0.000
  T5                   STORAGE      0.000    0.102     0  07:12           0        3.06       7.520
  T4                   STORAGE      0.000    0.068     0  08:07           0        2.08      10.679
  T6                   STORAGE      0.000    0.271     0  08:02           0        8.13       6.317
  T3                   STORAGE      0.000    0.370     0  07:14           0        11.5      12.232
  T2                   STORAGE      0.000    0.139     0  06:52           0        3.45      25.971
  T1                   STORAGE      0.000    0.449     0  11:53           0        19.9       3.174
  
  
  **********************
  Node Surcharge Summary
  **********************
  
  No nodes were surcharged.
  
  
  *********************
  Node Flooding Summary
  *********************
  
  Flooding refers to all water that overflows a node, whether it ponds or not.
  --------------------------------------------------------------------------
                                                             Total   Maximum
                                 Maximum   Time of Max       Flood    Ponded
                        Hours       Rate    Occurrence      Volume     Depth
  Node                 Flooded       CMS   days hr:min    10^6 ltr    Meters
  --------------------------------------------------------------------------
  T5                      2.79     0.063      0  11:42       0.318     0.000
  T4                      1.63     0.046      0  11:48       0.143     0.000
  T6                      5.98     0.195      0  08:02       2.462     0.000
  T3                      1.50     0.118      0  12:38       0.363     0.000
  T2                      1.72     0.089      0  11:21       0.255     0.000
  T1                      4.36     0.179      0  11:53       1.698     0.000
  
  
  **********************
  Storage Volume Summary
  **********************
  
  --------------------------------------------------------------------------------------------------
                         Average     Avg  Evap Exfil       Maximum     Max    Time of Max    Maximum
                          Volume    Pcnt  Pcnt  Pcnt        Volume    Pcnt     Occurrence    Outflow
  Storage Unit           1000 m3    Full  Loss  Loss       1000 m3    Full    days hr:min        CMS
  --------------------------------------------------------------------------------------------------
  T5                       0.282      56     0     0         0.500     100       0  10:15      0.039
  T4                       0.291      58     0     0         0.500     100       0  11:34      0.028
  T6                       0.387      64     0     0         0.600     100       0  07:50      0.075
  T3                       1.737      67     0     0         2.600     100       0  12:29      0.124
  T2                       0.611      61     0     0         1.000     100       0  11:20      0.033
  T1                       0.446      64     0     0         0.700     100       0  08:22      0.271
  
  
  ***********************
  Outfall Loading Summary
  ***********************
  
  -----------------------------------------------------------
                         Flow       Avg       Max       Total
                         Freq      Flow      Flow      Volume
  Outfall Node           Pcnt       CMS       CMS    10^6 ltr
  -----------------------------------------------------------
  Out_to_WWTP           99.43     0.202     0.271      17.104
  -----------------------------------------------------------
  System                99.43     0.202     0.271      17.104
  
  
  ********************
  Link Flow Summary
  ********************
  
  -----------------------------------------------------------------------------
                                 Maximum  Time of Max   Maximum    Max/    Max/
                                  |Flow|   Occurrence   |Veloc|    Full    Full
  Link                 Type          CMS  days hr:min     m/sec    Flow   Depth
  -----------------------------------------------------------------------------
  C1                   CONDUIT     0.039     0  11:01      1.02    0.01    0.11
  C6                   CONDUIT     0.031     0  08:08      1.12    0.50    0.42
  C2                   CONDUIT     0.028     0  13:12      1.00    0.03    0.17
  C9                   CONDUIT     0.049     0  07:28      0.95    0.17    0.31
  C16                  CONDUIT     0.186     0  07:08      1.32    0.02    0.09
  C3                   CONDUIT     0.124     0  14:02      1.82    0.05    0.14
  C19                  CONDUIT     0.033     0  12:32      0.65    0.01    0.15
  C11                  CONDUIT     0.190     0  14:11      1.74    0.01    0.09
  C20                  CONDUIT     0.199     0  07:12      1.78    0.01    0.08
  C22                  CONDUIT     0.065     0  07:33      0.99    0.03    0.20
  C12                  CONDUIT     0.075     0  09:07      0.91    0.01    0.28
  C17                  CONDUIT     0.315     0  07:07      2.11    0.02    0.27
  C10                  CONDUIT     0.271     0  08:02      1.00    0.03    0.56
  C13                  CONDUIT     0.370     0  07:14      1.27    0.02    0.75
  C18                  CONDUIT     0.139     0  06:52      1.02    0.01    0.53
  C23                  CONDUIT     0.449     0  11:53      1.08    0.05    0.58
  C4                   CONDUIT     0.102     0  07:12      1.14    0.02    0.55
  C7                   CONDUIT     0.068     0  08:07      0.87    0.02    0.55
  C14                  CONDUIT     0.271     0  08:24      2.08    0.02    0.09
  C5                   CONDUIT     0.032     0  08:06      1.05    0.55    0.58
  C8                   CONDUIT     0.051     0  07:22      1.23    0.65    0.52
  C15                  CONDUIT     0.200     0  07:01      2.45    0.64    0.51
  C21                  CONDUIT     0.068     0  07:12      1.47    0.39    0.34
  V4                   ORIFICE     0.028     0  12:30                      0.35
  V5                   ORIFICE     0.039     0  10:15                      1.00
  V1                   ORIFICE     0.271     0  08:23                      1.00
  V6                   ORIFICE     0.075     0  07:50                      0.43
  V3                   ORIFICE     0.124     0  14:00                      0.65
  V2                   ORIFICE     0.033     0  11:30                      0.24
  
  
  ***************************
  Flow Classification Summary
  ***************************
  
  -------------------------------------------------------------------------------------
                      Adjusted    ---------- Fraction of Time in Flow Class ---------- 
                       /Actual         Up    Down  Sub   Sup   Up    Down  Norm  Inlet 
  Conduit               Length    Dry  Dry   Dry   Crit  Crit  Crit  Crit  Ltd   Ctrl  
  -------------------------------------------------------------------------------------
  C1                      1.00   0.00  0.00  0.00  0.46  0.54  0.00  0.00  0.96  0.00
  C6                      1.00   0.00  0.00  0.00  0.01  0.99  0.00  0.00  0.00  0.00
  C2                      1.00   0.00  0.00  0.00  0.90  0.10  0.00  0.00  0.98  0.00
  C9                      1.00   0.00  0.00  0.00  1.00  0.00  0.00  0.00  1.00  0.00
  C16                     1.00   0.00  0.01  0.00  0.47  0.52  0.00  0.00  0.28  0.00
  C3                      1.00   0.00  0.00  0.00  0.03  0.97  0.00  0.00  0.10  0.00
  C19                     1.00   0.00  0.00  0.00  1.00  0.00  0.00  0.00  1.00  0.00
  C11                     1.00   0.00  0.00  0.00  0.14  0.86  0.00  0.00  1.00  0.00
  C20                     1.00   0.00  0.00  0.00  0.51  0.49  0.00  0.00  0.99  0.00
  C22                     1.00   0.00  0.00  0.00  1.00  0.00  0.00  0.00  1.00  0.00
  C12                     1.00   0.00  0.00  0.00  0.96  0.04  0.00  0.00  1.00  0.00
  C17                     1.00   0.00  0.00  0.00  0.60  0.40  0.00  0.00  0.99  0.00
  C10                     1.00   0.00  0.00  0.00  0.97  0.03  0.00  0.00  0.98  0.00
  C13                     1.00   0.00  0.00  0.00  0.94  0.06  0.00  0.00  0.34  0.00
  C18                     1.00   0.00  0.00  0.00  0.96  0.04  0.00  0.00  0.98  0.00
  C23                     1.00   0.00  0.00  0.00  0.95  0.05  0.00  0.00  0.97  0.00
  C4                      1.00   0.00  0.00  0.00  0.96  0.04  0.00  0.00  0.98  0.00
  C7                      1.00   0.00  0.00  0.00  0.95  0.05  0.00  0.00  0.97  0.00
  C14                     1.00   0.00  0.00  0.00  0.00  1.00  0.00  0.00  0.28  0.00
  C5                      1.00   0.00  0.00  0.00  0.89  0.11  0.00  0.00  0.99  0.00
  C8                      1.00   0.00  0.00  0.00  0.01  0.99  0.00  0.00  0.00  0.00
  C15                     1.00   0.01  0.00  0.00  0.01  0.99  0.00  0.00  0.01  0.00
  C21                     1.00   0.00  0.00  0.00  0.00  1.00  0.00  0.00  0.00  0.00
  
  
  *************************
  Conduit Surcharge Summary
  *************************
  
  ----------------------------------------------------------------------------
                                                           Hours        Hours 
                         --------- Hours Full --------   Above Full   Capacity
  Conduit                Both Ends  Upstream  Dnstream   Normal Flow   Limited
  ----------------------------------------------------------------------------
  C10                         0.01      0.01     19.00      0.01         0.01
  C13                         0.01      0.01     16.40      0.01         0.01
  C18                         0.01      0.01     16.21      0.01         0.01
  C23                         0.01      0.01     17.25      0.01         0.01
  C4                          0.01      0.01     18.67      0.01         0.01
  C7                          0.01      0.01     17.32      0.01         0.01
  

  Analysis begun on:  Tue Sep 21 12:41:44 2021
  Analysis ended on:  Tue Sep 21 12:41:44 2021
  Total elapsed time: < 1 sec