
  EPA STORM WATER MANAGEMENT MODEL - VERSION 5.1 (Build 5.3.0.dev0)
  --------------------------------------------------------------

  WARNING 09: time series interval greater than recording interval for Rain Gage RG1
  WARNING 09: time series interval greater than recording interval for Rain Gage RG2
  WARNING 09: time series interval greater than recording interval for Rain Gage RG3
  WARNING 09: time series interval greater than recording interval for Rain Gage RG4
  
  *********************************************************
  NOTE: The summary statistics displayed in this report are
  based on results found at every computational time step,  
  not just on results from each reporting time step.
  *********************************************************
  
  ****************
  Analysis Options
  ****************
  Flow Units ............... CMS
  Process Models:
    Rainfall/Runoff ........ YES
    RDII ................... NO
    Snowmelt ............... NO
    Groundwater ............ NO
    Flow Routing ........... YES
    Ponding Allowed ........ YES
    Water Quality .......... NO
  Infiltration Method ...... HORTON
  Flow Routing Method ...... DYNWAVE
  Surcharge Method ......... EXTRAN
  Starting Date ............ 08/28/2015 00:00:00
  Ending Date .............. 08/28/2015 23:40:00
  Antecedent Dry Days ...... 0.0
  Report Time Step ......... 00:01:00
  Wet Time Step ............ 00:01:00
  Dry Time Step ............ 00:01:00
  Routing Time Step ........ 5.00 sec
  Variable Time Step ....... YES
  Maximum Trials ........... 8
  Number of Threads ........ 1
  Head Tolerance ........... 0.001500 m
  
  
  **************************        Volume         Depth
  Runoff Quantity Continuity     hectare-m            mm
  **************************     ---------       -------
  Total Precipitation ......         1.952        10.834
  Evaporation Loss .........         0.000         0.000
  Infiltration Loss ........         0.000         0.000
  Surface Runoff ...........         1.941        10.773
  Final Storage ............         0.012         0.065
  Continuity Error (%) .....        -0.043
  
  
  **************************        Volume        Volume
  Flow Routing Continuity        hectare-m      10^6 ltr
  **************************     ---------     ---------
  Dry Weather Inflow .......         0.758         7.576
  Wet Weather Inflow .......         1.941        19.414
  Groundwater Inflow .......         0.000         0.000
  RDII Inflow ..............         0.000         0.000
  External Inflow ..........         0.000         0.000
  External Outflow .........         1.949        19.487
  Flooding Loss ............         0.196         1.963
  Evaporation Loss .........         0.000         0.000
  Exfiltration Loss ........         0.000         0.000
  Initial Stored Volume ....         0.000         0.000
  Final Stored Volume ......         0.484         4.843
  Continuity Error (%) .....         2.579
  
  
  *************************
  Highest Continuity Errors
  *************************
  Node T2 (17.26%)
  Node T3 (8.52%)
  Node T4 (6.64%)
  Node T5 (4.52%)
  Node T6 (2.65%)
  
  
  ***************************
  Time-Step Critical Elements
  ***************************
  None
  
  
  ********************************
  Highest Flow Instability Indexes
  ********************************
  Link C15 (1)
  
  
  *************************
  Routing Time Step Summary
  *************************
  Minimum Time Step           :     4.50 sec
  Average Time Step           :     5.00 sec
  Maximum Time Step           :     5.00 sec
  Percent in Steady State     :     0.00
  Average Iterations per Step :     2.00
  Percent Not Converging      :     0.00
  
  
  ***************************
  Subcatchment Runoff Summary
  ***************************
  
  ------------------------------------------------------------------------------------------------------------------------------
                            Total      Total      Total      Total     Imperv       Perv      Total       Total     Peak  Runoff
                           Precip      Runon       Evap      Infil     Runoff     Runoff     Runoff      Runoff   Runoff   Coeff
  Subcatchment                 mm         mm         mm         mm         mm         mm         mm    10^6 ltr      CMS
  ------------------------------------------------------------------------------------------------------------------------------
  SC01                      11.08       0.00       0.00       0.00      11.03       0.00      11.03        3.64     0.26   0.995
  SC02                      10.61       0.00       0.00       0.00      10.56       0.00      10.56        2.40     0.20   0.995
  SC03                      10.58       0.00       0.00       0.00      10.54       0.00      10.54        1.90     0.15   0.996
  SC04                      10.61       0.00       0.00       0.00      10.53       0.00      10.53        0.73     0.05   0.993
  SC05                      11.08       0.00       0.00       0.00      11.03       0.00      11.03        1.72     0.12   0.995
  SC06                      10.95       0.00       0.00       0.00      10.86       0.00      10.86        3.54     0.18   0.992
  SC07                      10.61       0.00       0.00       0.00      10.53       0.00      10.53        0.50     0.03   0.993
  SC08                      10.58       0.00       0.00       0.00      10.52       0.00      10.52        2.95     0.20   0.994
  SC09                      10.95       0.00       0.00       0.00      10.89       0.00      10.89        0.75     0.04   0.994
  SC010                     11.08       0.00       0.00       0.00      11.02       0.00      11.02        1.30     0.08   0.995
  
  
  ******************
  Node Depth Summary
  ******************
  
  ---------------------------------------------------------------------------------
                                 Average  Maximum  Maximum  Time of Max    Reported
                                   Depth    Depth      HGL   Occurrence   Max Depth
  Node                 Type       Meters   Meters   Meters  days hr:min      Meters
  ---------------------------------------------------------------------------------
  J1                   JUNCTION     0.06     0.11    34.11     0  03:02        0.11
  J3                   JUNCTION     0.12     0.14    18.14     0  09:31        0.14
  CSO7                 JUNCTION     0.08     0.14    34.14     0  03:01        0.14
  J5                   JUNCTION     0.05     0.10    32.10     0  03:07        0.10
  CSO9                 JUNCTION     0.08     0.17    40.17     0  04:06        0.17
  J8                   JUNCTION     0.09     0.16    36.16     0  04:07        0.16
  CSO8                 JUNCTION     0.09     0.27    32.27     0  04:26        0.27
  J10                  JUNCTION     0.07     0.17    29.17     0  04:32        0.17
  J13                  JUNCTION     0.05     0.12    29.12     0  03:02        0.12
  J15                  JUNCTION     0.17     0.22    15.22     0  04:38        0.22
  J16                  JUNCTION     0.05     0.12    30.12     0  03:02        0.12
  CSO10                JUNCTION     0.09     0.23    30.23     0  03:01        0.23
  J12                  JUNCTION     0.43     0.87    26.87     0  09:33        0.87
  J4                   JUNCTION     0.10     0.17    33.17     0  03:08        0.17
  J6                   JUNCTION     0.06     0.07    25.07     0  09:29        0.07
  J2                   JUNCTION     0.07     0.08    25.08     0  08:30        0.08
  J19                  JUNCTION     0.16     0.17     8.17     0  04:35        0.17
  J9                   JUNCTION     0.10     0.11    29.11     0  05:21        0.11
  J14                  JUNCTION     0.13     0.15    20.15     0  11:21        0.15
  J17                  JUNCTION     0.07     0.07    20.07     0  11:12        0.07
  J7                   JUNCTION     0.07     0.12    39.12     0  04:08        0.12
  J11                  JUNCTION     0.07     0.18    31.18     0  04:32        0.18
  J18                  JUNCTION     0.04     0.10    29.10     0  03:08        0.10
  Out_to_WWTP          OUTFALL      0.16     0.17     6.17     0  05:41        0.17
  T5                   STORAGE      3.13     5.00    32.00     0  08:09        5.00
  T4                   STORAGE      3.29     5.00    32.00     0  09:11        5.00
  T6                   STORAGE      3.36     5.00    36.00     0  04:05        5.00
  T3                   STORAGE      3.85     4.88    26.88     0  09:29        4.88
  T2                   STORAGE      3.66     4.93    25.93     0  10:52        4.93
  T1                   STORAGE      3.73     5.00    15.00     0  04:33        5.00
  
  
  *******************
  Node Inflow Summary
  *******************
  
  -------------------------------------------------------------------------------------------------
                                  Maximum  Maximum                  Lateral       Total        Flow
                                  Lateral    Total  Time of Max      Inflow      Inflow     Balance
                                   Inflow   Inflow   Occurrence      Volume      Volume       Error
  Node                 Type           CMS      CMS  days hr:min    10^6 ltr    10^6 ltr     Percent
  -------------------------------------------------------------------------------------------------
  J1                   JUNCTION     0.124    0.124     0  03:01        2.81        2.81      -0.092
  J3                   JUNCTION     0.000    0.189     0  09:29           0        12.7       0.247
  CSO7                 JUNCTION     0.036    0.036     0  03:01        1.07        1.07       0.008
  J5                   JUNCTION     0.050    0.082     0  03:06       0.975        2.04      -0.060
  CSO9                 JUNCTION     0.042    0.042     0  04:06        1.13        1.13       0.006
  J8                   JUNCTION     0.189    0.227     0  04:06        5.37         6.5      -0.066
  CSO8                 JUNCTION     0.197    0.197     0  04:26        3.39        3.39      -0.005
  J10                  JUNCTION     0.151    0.317     0  04:26        2.65        6.04      -0.068
  J13                  JUNCTION     0.199    0.199     0  03:01        3.31        3.31      -0.211
  J15                  JUNCTION     0.000    0.444     0  04:32           0        21.1       0.308
  J16                  JUNCTION     0.265    0.265     0  03:01        4.72        4.72      -0.070
  CSO10                JUNCTION     0.085    0.085     0  03:01        1.57        1.57       0.001
  J12                  JUNCTION     0.000    0.380     0  04:32           0        11.1       0.078
  J4                   JUNCTION     0.000    0.035     0  03:01           0        1.07       0.112
  J6                   JUNCTION     0.000    0.028     0  09:20           0        1.73       0.165
  J2                   JUNCTION     0.000    0.039     0  08:09           0        2.57       0.116
  J19                  JUNCTION     0.000    0.271     0  04:33           0        19.5       0.050
  J9                   JUNCTION     0.000    0.075     0  04:05           0        5.06       0.206
  J14                  JUNCTION     0.000    0.122     0  09:29           0        8.44       0.076
  J17                  JUNCTION     0.000    0.033     0  11:00           0        2.17       0.262
  J7                   JUNCTION     0.000    0.041     0  04:07           0        1.13       0.083
  J11                  JUNCTION     0.000    0.195     0  04:26           0        3.39       0.015
  J18                  JUNCTION     0.000    0.082     0  03:06           0        1.57      -0.059
  Out_to_WWTP          OUTFALL      0.000    0.271     0  04:35           0        19.5       0.000
  T5                   STORAGE      0.000    0.114     0  03:02           0        2.82       4.729
  T4                   STORAGE      0.000    0.080     0  03:07           0        2.04       7.109
  T6                   STORAGE      0.000    0.220     0  04:07           0         6.5       2.725
  T3                   STORAGE      0.000    0.376     0  04:34           0        11.1       9.311
  T2                   STORAGE      0.000    0.184     0  03:02           0        3.32      20.855
  T1                   STORAGE      0.000    0.421     0  04:38           0        21.1       2.083
  
  
  **********************
  Node Surcharge Summary
  **********************
  
  No nodes were surcharged.
  
  
  *********************
  Node Flooding Summary
  *********************
  
  Flooding refers to all water that overflows a node, whether it ponds or not.
  --------------------------------------------------------------------------
                                                             Total   Maximum
                                 Maximum   Time of Max       Flood    Ponded
                        Hours       Rate    Occurrence      Volume     Depth
  Node                 Flooded       CMS   days hr:min    10^6 ltr    Meters
  --------------------------------------------------------------------------
  T5                      0.35     0.014      0  08:09       0.009     0.000
  T4                      0.10     0.009      0  09:11       0.002     0.000
  T6                      4.70     0.144      0  04:07       1.153     0.000
  T1                      3.06     0.150      0  04:38       0.800     0.000
  
  
  **********************
  Storage Volume Summary
  **********************
  
  --------------------------------------------------------------------------------------------------
                         Average     Avg  Evap Exfil       Maximum     Max    Time of Max    Maximum
                          Volume    Pcnt  Pcnt  Pcnt        Volume    Pcnt     Occurrence    Outflow
  Storage Unit           1000 m3    Full  Loss  Loss       1000 m3    Full    days hr:min        CMS
  --------------------------------------------------------------------------------------------------
  T5                       0.313      63     0     0         0.500     100       0  08:09      0.039
  T4                       0.329      66     0     0         0.500     100       0  09:11      0.028
  T6                       0.403      67     0     0         0.600     100       0  04:05      0.075
  T3                       2.002      77     0     0         2.535      98       0  09:29      0.122
  T2                       0.733      73     0     0         0.986      99       0  10:52      0.033
  T1                       0.523      75     0     0         0.700     100       0  04:33      0.271
  
  
  ***********************
  Outfall Loading Summary
  ***********************
  
  -----------------------------------------------------------
                         Flow       Avg       Max       Total
                         Freq      Flow      Flow      Volume
  Outfall Node           Pcnt       CMS       CMS    10^6 ltr
  -----------------------------------------------------------
  Out_to_WWTP           99.65     0.230     0.271      19.487
  -----------------------------------------------------------
  System                99.65     0.230     0.271      19.487
  
  
  ********************
  Link Flow Summary
  ********************
  
  -----------------------------------------------------------------------------
                                 Maximum  Time of Max   Maximum    Max/    Max/
                                  |Flow|   Occurrence   |Veloc|    Full    Full
  Link                 Type          CMS  days hr:min     m/sec    Flow   Depth
  -----------------------------------------------------------------------------
  C1                   CONDUIT     0.039     0  08:30      1.01    0.01    0.11
  C6                   CONDUIT     0.033     0  03:08      1.12    0.53    0.44
  C2                   CONDUIT     0.028     0  09:29      0.99    0.03    0.17
  C9                   CONDUIT     0.039     0  04:08      0.89    0.13    0.28
  C16                  CONDUIT     0.179     0  04:33      1.30    0.02    0.09
  C3                   CONDUIT     0.122     0  11:22      1.80    0.05    0.14
  C19                  CONDUIT     0.033     0  11:12      0.67    0.01    0.14
  C11                  CONDUIT     0.188     0  09:31      1.73    0.01    0.09
  C20                  CONDUIT     0.245     0  03:02      2.38    0.01    0.08
  C22                  CONDUIT     0.078     0  03:08      1.11    0.04    0.20
  C12                  CONDUIT     0.075     0  05:21      0.98    0.01    0.25
  C17                  CONDUIT     0.304     0  04:32      2.04    0.02    0.24
  C10                  CONDUIT     0.220     0  04:07      1.28    0.02    0.55
  C13                  CONDUIT     0.376     0  04:34      1.89    0.02    0.72
  C18                  CONDUIT     0.184     0  03:02      2.06    0.01    0.53
  C23                  CONDUIT     0.421     0  04:38      1.79    0.05    0.57
  C4                   CONDUIT     0.114     0  03:02      2.00    0.03    0.56
  C7                   CONDUIT     0.080     0  03:07      1.50    0.02    0.55
  C14                  CONDUIT     0.271     0  04:35      2.08    0.02    0.09
  C5                   CONDUIT     0.035     0  03:01      1.11    0.60    0.60
  C8                   CONDUIT     0.041     0  04:07      1.16    0.52    0.46
  C15                  CONDUIT     0.195     0  04:26      2.44    0.62    0.50
  C21                  CONDUIT     0.082     0  03:06      1.56    0.47    0.38
  V4                   ORIFICE     0.028     0  09:20                      0.35
  V5                   ORIFICE     0.039     0  08:09                      1.00
  V1                   ORIFICE     0.271     0  04:33                      1.00
  V6                   ORIFICE     0.075     0  04:05                      0.43
  V3                   ORIFICE     0.122     0  09:29                      0.65
  V2                   ORIFICE     0.033     0  11:00                      0.24
  
  
  ***************************
  Flow Classification Summary
  ***************************
  
  -------------------------------------------------------------------------------------
                      Adjusted    ---------- Fraction of Time in Flow Class ---------- 
                       /Actual         Up    Down  Sub   Sup   Up    Down  Norm  Inlet 
  Conduit               Length    Dry  Dry   Dry   Crit  Crit  Crit  Crit  Ltd   Ctrl  
  -------------------------------------------------------------------------------------
  C1                      1.00   0.00  0.00  0.00  0.56  0.44  0.00  0.00  0.98  0.00
  C6                      1.00   0.00  0.00  0.00  0.01  0.99  0.00  0.00  0.00  0.00
  C2                      1.00   0.00  0.00  0.00  0.83  0.17  0.00  0.00  0.99  0.00
  C9                      1.00   0.00  0.00  0.00  1.00  0.00  0.00  0.00  1.00  0.00
  C16                     1.00   0.00  0.00  0.00  0.59  0.41  0.00  0.00  0.49  0.00
  C3                      1.00   0.00  0.00  0.00  0.01  0.99  0.00  0.00  0.16  0.00
  C19                     1.00   0.00  0.00  0.00  1.00  0.00  0.00  0.00  1.00  0.00
  C11                     1.00   0.00  0.00  0.00  0.20  0.80  0.00  0.00  1.00  0.00
  C20                     1.00   0.00  0.00  0.00  0.71  0.29  0.00  0.00  0.99  0.00
  C22                     1.00   0.00  0.00  0.00  0.93  0.07  0.00  0.00  1.00  0.00
  C12                     1.00   0.00  0.00  0.00  0.87  0.13  0.00  0.00  0.88  0.00
  C17                     1.00   0.00  0.00  0.00  0.78  0.22  0.00  0.00  0.99  0.00
  C10                     1.00   0.00  0.00  0.00  0.98  0.02  0.00  0.00  0.98  0.00
  C13                     1.00   0.00  0.00  0.00  0.97  0.03  0.00  0.00  0.32  0.00
  C18                     1.00   0.00  0.00  0.00  0.98  0.02  0.00  0.00  0.99  0.00
  C23                     1.00   0.00  0.00  0.00  0.98  0.02  0.00  0.00  0.99  0.00
  C4                      1.00   0.00  0.00  0.00  0.99  0.01  0.00  0.00  0.99  0.00
  C7                      1.00   0.00  0.00  0.00  0.98  0.02  0.00  0.00  0.99  0.00
  C14                     1.00   0.00  0.00  0.00  0.00  1.00  0.00  0.00  0.31  0.00
  C5                      1.00   0.00  0.00  0.00  0.92  0.08  0.00  0.00  0.99  0.00
  C8                      1.00   0.00  0.00  0.00  0.08  0.92  0.00  0.00  0.01  0.00
  C15                     1.00   0.00  0.00  0.00  0.02  0.98  0.00  0.00  0.02  0.00
  C21                     1.00   0.00  0.00  0.00  0.00  1.00  0.00  0.00  0.00  0.00
  
  
  *************************
  Conduit Surcharge Summary
  *************************
  
  ----------------------------------------------------------------------------
                                                           Hours        Hours 
                         --------- Hours Full --------   Above Full   Capacity
  Conduit                Both Ends  Upstream  Dnstream   Normal Flow   Limited
  ----------------------------------------------------------------------------
  C10                         0.01      0.01     20.35      0.01         0.01
  C13                         0.01      0.01     20.49      0.01         0.01
  C18                         0.01      0.01     20.73      0.01         0.01
  C23                         0.01      0.01     22.42      0.01         0.01
  C4                          0.01      0.01     22.52      0.01         0.01
  C7                          0.01      0.01     21.88      0.01         0.01
  

  Analysis begun on:  Tue Sep 21 12:50:41 2021
  Analysis ended on:  Tue Sep 21 12:50:42 2021
  Total elapsed time: 00:00:01