
  EPA STORM WATER MANAGEMENT MODEL - VERSION 5.1 (Build 5.3.0.dev0)
  --------------------------------------------------------------

  WARNING 09: time series interval greater than recording interval for Rain Gage RG1
  WARNING 09: time series interval greater than recording interval for Rain Gage RG2
  WARNING 09: time series interval greater than recording interval for Rain Gage RG3
  WARNING 09: time series interval greater than recording interval for Rain Gage RG4
  
  *********************************************************
  NOTE: The summary statistics displayed in this report are
  based on results found at every computational time step,  
  not just on results from each reporting time step.
  *********************************************************
  
  ****************
  Analysis Options
  ****************
  Flow Units ............... CMS
  Process Models:
    Rainfall/Runoff ........ YES
    RDII ................... NO
    Snowmelt ............... NO
    Groundwater ............ NO
    Flow Routing ........... YES
    Ponding Allowed ........ YES
    Water Quality .......... NO
  Infiltration Method ...... HORTON
  Flow Routing Method ...... DYNWAVE
  Surcharge Method ......... EXTRAN
  Starting Date ............ 08/28/2015 00:00:00
  Ending Date .............. 08/28/2015 23:40:00
  Antecedent Dry Days ...... 0.0
  Report Time Step ......... 00:01:00
  Wet Time Step ............ 00:01:00
  Dry Time Step ............ 00:01:00
  Routing Time Step ........ 5.00 sec
  Variable Time Step ....... YES
  Maximum Trials ........... 8
  Number of Threads ........ 1
  Head Tolerance ........... 0.001500 m
  
  
  **************************        Volume         Depth
  Runoff Quantity Continuity     hectare-m            mm
  **************************     ---------       -------
  Total Precipitation ......         1.994        11.063
  Evaporation Loss .........         0.000         0.000
  Infiltration Loss ........         0.000         0.000
  Surface Runoff ...........         1.918        10.645
  Final Storage ............         0.077         0.426
  Continuity Error (%) .....        -0.073
  
  
  **************************        Volume        Volume
  Flow Routing Continuity        hectare-m      10^6 ltr
  **************************     ---------     ---------
  Dry Weather Inflow .......         0.758         7.576
  Wet Weather Inflow .......         1.918        19.177
  Groundwater Inflow .......         0.000         0.000
  RDII Inflow ..............         0.000         0.000
  External Inflow ..........         0.000         0.000
  External Outflow .........         1.789        17.895
  Flooding Loss ............         0.001         0.010
  Evaporation Loss .........         0.000         0.000
  Exfiltration Loss ........         0.000         0.000
  Initial Stored Volume ....         0.000         0.000
  Final Stored Volume ......         0.679         6.786
  Continuity Error (%) .....         7.709
  
  
  *************************
  Highest Continuity Errors
  *************************
  Node T2 (23.32%)
  Node T4 (12.22%)
  Node T3 (11.65%)
  Node T5 (9.98%)
  Node T6 (7.68%)
  
  
  ***************************
  Time-Step Critical Elements
  ***************************
  None
  
  
  ********************************
  Highest Flow Instability Indexes
  ********************************
  All links are stable.
  
  
  *************************
  Routing Time Step Summary
  *************************
  Minimum Time Step           :     4.50 sec
  Average Time Step           :     5.00 sec
  Maximum Time Step           :     5.00 sec
  Percent in Steady State     :     0.00
  Average Iterations per Step :     2.00
  Percent Not Converging      :     0.00
  
  
  ***************************
  Subcatchment Runoff Summary
  ***************************
  
  ------------------------------------------------------------------------------------------------------------------------------
                            Total      Total      Total      Total     Imperv       Perv      Total       Total     Peak  Runoff
                           Precip      Runon       Evap      Infil     Runoff     Runoff     Runoff      Runoff   Runoff   Coeff
  Subcatchment                 mm         mm         mm         mm         mm         mm         mm    10^6 ltr      CMS
  ------------------------------------------------------------------------------------------------------------------------------
  SC01                      12.25       0.00       0.00       0.00      11.84       0.00      11.84        3.91     0.30   0.966
  SC02                      13.58       0.00       0.00       0.00      13.18       0.00      13.18        3.00     0.18   0.971
  SC03                      11.22       0.00       0.00       0.00      11.01       0.00      11.01        1.98     0.23   0.981
  SC04                      13.58       0.00       0.00       0.00      12.94       0.00      12.94        0.89     0.04   0.953
  SC05                      12.25       0.00       0.00       0.00      11.81       0.00      11.81        1.84     0.14   0.964
  SC06                       6.87       0.00       0.00       0.00       6.37       0.00       6.37        2.07     0.10   0.928
  SC07                      13.58       0.00       0.00       0.00      12.94       0.00      12.94        0.61     0.03   0.953
  SC08                      11.22       0.00       0.00       0.00      10.87       0.00      10.87        3.04     0.24   0.969
  SC09                       6.87       0.00       0.00       0.00       6.50       0.00       6.50        0.45     0.02   0.946
  SC010                     12.25       0.00       0.00       0.00      11.74       0.00      11.74        1.38     0.09   0.959
  
  
  ******************
  Node Depth Summary
  ******************
  
  ---------------------------------------------------------------------------------
                                 Average  Maximum  Maximum  Time of Max    Reported
                                   Depth    Depth      HGL   Occurrence   Max Depth
  Node                 Type       Meters   Meters   Meters  days hr:min      Meters
  ---------------------------------------------------------------------------------
  J1                   JUNCTION     0.06     0.12    34.12     0  02:52        0.12
  J3                   JUNCTION     0.11     0.13    18.13     0  21:04        0.13
  CSO7                 JUNCTION     0.08     0.14    34.14     0  19:56        0.14
  J5                   JUNCTION     0.06     0.09    32.09     0  20:01        0.09
  CSO9                 JUNCTION     0.07     0.13    40.13     0  06:52        0.13
  J8                   JUNCTION     0.08     0.12    36.12     0  04:18        0.12
  CSO8                 JUNCTION     0.10     0.31    32.31     0  02:46        0.30
  J10                  JUNCTION     0.08     0.19    29.19     0  02:51        0.19
  J13                  JUNCTION     0.06     0.11    29.11     0  19:57        0.11
  J15                  JUNCTION     0.16     0.22    15.22     0  06:58        0.22
  J16                  JUNCTION     0.06     0.13    30.13     0  02:52        0.13
  CSO10                JUNCTION     0.10     0.24    30.24     0  02:51        0.24
  J12                  JUNCTION     0.17     0.34    26.34     0  21:53        0.34
  J4                   JUNCTION     0.10     0.16    33.16     0  20:00        0.16
  J6                   JUNCTION     0.06     0.07    25.07     0  21:07        0.07
  J2                   JUNCTION     0.06     0.07    25.07     0  08:35        0.07
  J19                  JUNCTION     0.15     0.17     8.17     0  22:01        0.17
  J9                   JUNCTION     0.09     0.11    29.11     0  12:26        0.11
  J14                  JUNCTION     0.12     0.15    20.15     0  15:31        0.15
  J17                  JUNCTION     0.06     0.08    20.08     0  21:03        0.08
  J7                   JUNCTION     0.06     0.10    39.10     0  06:58        0.10
  J11                  JUNCTION     0.08     0.19    31.19     0  02:52        0.19
  J18                  JUNCTION     0.05     0.10    29.10     0  02:53        0.10
  Out_to_WWTP          OUTFALL      0.15     0.17     6.17     0  22:02        0.17
  T5                   STORAGE      2.77     3.83    30.83     0  08:33        3.83
  T4                   STORAGE      2.98     4.33    31.33     0  21:05        4.33
  T6                   STORAGE      2.57     4.25    35.25     0  12:09        4.25
  T3                   STORAGE      3.12     4.34    26.34     0  21:49        4.34
  T2                   STORAGE      3.21     5.00    26.00     0  20:42        5.00
  T1                   STORAGE      3.41     4.88    14.88     0  22:01        4.88
  
  
  *******************
  Node Inflow Summary
  *******************
  
  -------------------------------------------------------------------------------------------------
                                  Maximum  Maximum                  Lateral       Total        Flow
                                  Lateral    Total  Time of Max      Inflow      Inflow     Balance
                                   Inflow   Inflow   Occurrence      Volume      Volume       Error
  Node                 Type           CMS      CMS  days hr:min    10^6 ltr    10^6 ltr     Percent
  -------------------------------------------------------------------------------------------------
  J1                   JUNCTION     0.140    0.140     0  02:51        2.94        2.94       0.054
  J3                   JUNCTION     0.000    0.173     0  21:03           0        10.8       0.322
  CSO7                 JUNCTION     0.034    0.034     0  19:56        1.18        1.18       0.035
  J5                   JUNCTION     0.041    0.069     0  20:01        1.14        2.32       0.093
  CSO9                 JUNCTION     0.027    0.027     0  06:51        0.83        0.83       0.047
  J8                   JUNCTION     0.115    0.139     0  04:16        3.91        4.73       0.073
  CSO8                 JUNCTION     0.236    0.236     0  02:46        3.49        3.49       0.018
  J10                  JUNCTION     0.227    0.379     0  02:46        2.73        6.21       0.106
  J13                  JUNCTION     0.188    0.188     0  19:56        3.91        3.91       0.004
  J15                  JUNCTION     0.000    0.462     0  06:52           0        19.4       0.490
  J16                  JUNCTION     0.306    0.306     0  02:51        4.98        4.98       0.088
  CSO10                JUNCTION     0.092    0.092     0  02:51        1.65        1.65       0.070
  J12                  JUNCTION     0.000    0.375     0  02:52           0        10.3       0.944
  J4                   JUNCTION     0.000    0.033     0  19:57           0        1.18       0.272
  J6                   JUNCTION     0.000    0.026     0  21:05           0        1.65       0.233
  J2                   JUNCTION     0.000    0.034     0  08:33           0        2.35       0.199
  J19                  JUNCTION     0.000    0.267     0  22:01           0        17.9       0.069
  J9                   JUNCTION     0.000    0.070     0  12:10           0        4.13       0.317
  J14                  JUNCTION     0.000    0.115     0  21:49           0        6.83       0.102
  J17                  JUNCTION     0.000    0.033     0  20:42           0        2.03       0.309
  J7                   JUNCTION     0.000    0.027     0  06:52           0        0.83       0.316
  J11                  JUNCTION     0.000    0.235     0  02:46           0        3.49       0.265
  J18                  JUNCTION     0.000    0.088     0  02:52           0        1.65       0.252
  Out_to_WWTP          OUTFALL      0.000    0.267     0  22:02           0        17.9       0.000
  T5                   STORAGE      0.000    0.128     0  02:52           0        2.93      11.091
  T4                   STORAGE      0.000    0.068     0  20:02           0        2.31      13.916
  T6                   STORAGE      0.000    0.135     0  04:18           0        4.73       8.319
  T3                   STORAGE      0.000    0.362     0  02:54           0        10.2      13.183
  T2                   STORAGE      0.000    0.174     0  19:57           0        3.91      30.410
  T1                   STORAGE      0.000    0.439     0  06:58           0        19.3       4.192
  
  
  **********************
  Node Surcharge Summary
  **********************
  
  No nodes were surcharged.
  
  
  *********************
  Node Flooding Summary
  *********************
  
  Flooding refers to all water that overflows a node, whether it ponds or not.
  --------------------------------------------------------------------------
                                                             Total   Maximum
                                 Maximum   Time of Max       Flood    Ponded
                        Hours       Rate    Occurrence      Volume     Depth
  Node                 Flooded       CMS   days hr:min    10^6 ltr    Meters
  --------------------------------------------------------------------------
  T2                      0.35     0.018      0  20:42       0.010     0.000
  
  
  **********************
  Storage Volume Summary
  **********************
  
  --------------------------------------------------------------------------------------------------
                         Average     Avg  Evap Exfil       Maximum     Max    Time of Max    Maximum
                          Volume    Pcnt  Pcnt  Pcnt        Volume    Pcnt     Occurrence    Outflow
  Storage Unit           1000 m3    Full  Loss  Loss       1000 m3    Full    days hr:min        CMS
  --------------------------------------------------------------------------------------------------
  T5                       0.277      55     0     0         0.383      77       0  08:33      0.034
  T4                       0.298      60     0     0         0.433      87       0  21:05      0.026
  T6                       0.309      51     0     0         0.510      85       0  12:09      0.070
  T3                       1.621      62     0     0         2.256      87       0  21:49      0.115
  T2                       0.642      64     0     0         1.000     100       0  20:42      0.033
  T1                       0.478      68     0     0         0.683      98       0  22:01      0.267
  
  
  ***********************
  Outfall Loading Summary
  ***********************
  
  -----------------------------------------------------------
                         Flow       Avg       Max       Total
                         Freq      Flow      Flow      Volume
  Outfall Node           Pcnt       CMS       CMS    10^6 ltr
  -----------------------------------------------------------
  Out_to_WWTP           99.43     0.211     0.267      17.894
  -----------------------------------------------------------
  System                99.43     0.211     0.267      17.894
  
  
  ********************
  Link Flow Summary
  ********************
  
  -----------------------------------------------------------------------------
                                 Maximum  Time of Max   Maximum    Max/    Max/
                                  |Flow|   Occurrence   |Veloc|    Full    Full
  Link                 Type          CMS  days hr:min     m/sec    Flow   Depth
  -----------------------------------------------------------------------------
  C1                   CONDUIT     0.034     0  08:35      1.00    0.01    0.10
  C6                   CONDUIT     0.030     0  20:00      1.10    0.48    0.41
  C2                   CONDUIT     0.026     0  21:07      0.98    0.03    0.17
  C9                   CONDUIT     0.025     0  06:58      0.79    0.09    0.22
  C16                  CONDUIT     0.203     0  02:52      1.34    0.02    0.10
  C3                   CONDUIT     0.115     0  21:49      1.77    0.04    0.14
  C19                  CONDUIT     0.033     0  21:03      0.67    0.01    0.14
  C11                  CONDUIT     0.173     0  21:04      1.69    0.01    0.09
  C20                  CONDUIT     0.281     0  02:52      2.27    0.01    0.09
  C22                  CONDUIT     0.082     0  02:54      1.19    0.04    0.20
  C12                  CONDUIT     0.069     0  12:26      1.03    0.01    0.11
  C17                  CONDUIT     0.364     0  02:51      2.43    0.02    0.11
  C10                  CONDUIT     0.135     0  04:18      1.02    0.01    0.54
  C13                  CONDUIT     0.362     0  02:54      1.24    0.02    0.58
  C18                  CONDUIT     0.174     0  19:57      1.30    0.01    0.53
  C23                  CONDUIT     0.439     0  06:58      1.18    0.05    0.57
  C4                   CONDUIT     0.128     0  02:52      1.14    0.03    0.56
  C7                   CONDUIT     0.068     0  20:02      0.83    0.02    0.54
  C14                  CONDUIT     0.267     0  22:02      2.07    0.01    0.09
  C5                   CONDUIT     0.033     0  19:57      1.10    0.56    0.57
  C8                   CONDUIT     0.027     0  06:52      1.03    0.33    0.36
  C15                  CONDUIT     0.235     0  02:46      2.65    0.75    0.54
  C21                  CONDUIT     0.088     0  02:52      1.60    0.50    0.39
  V4                   ORIFICE     0.026     0  21:05                      0.35
  V5                   ORIFICE     0.034     0  08:33                      1.00
  V1                   ORIFICE     0.267     0  22:01                      1.00
  V6                   ORIFICE     0.070     0  12:10                      0.43
  V3                   ORIFICE     0.115     0  21:49                      0.65
  V2                   ORIFICE     0.033     0  20:42                      0.24
  
  
  ***************************
  Flow Classification Summary
  ***************************
  
  -------------------------------------------------------------------------------------
                      Adjusted    ---------- Fraction of Time in Flow Class ---------- 
                       /Actual         Up    Down  Sub   Sup   Up    Down  Norm  Inlet 
  Conduit               Length    Dry  Dry   Dry   Crit  Crit  Crit  Crit  Ltd   Ctrl  
  -------------------------------------------------------------------------------------
  C1                      1.00   0.00  0.00  0.00  0.37  0.63  0.00  0.00  0.96  0.00
  C6                      1.00   0.00  0.00  0.00  0.01  0.99  0.00  0.00  0.00  0.00
  C2                      1.00   0.00  0.00  0.00  0.67  0.33  0.00  0.00  0.97  0.00
  C9                      1.00   0.00  0.00  0.00  1.00  0.00  0.00  0.00  1.00  0.00
  C16                     1.00   0.00  0.06  0.00  0.32  0.62  0.00  0.00  0.24  0.00
  C3                      1.00   0.00  0.00  0.00  0.03  0.96  0.00  0.00  0.26  0.00
  C19                     1.00   0.00  0.00  0.00  1.00  0.00  0.00  0.00  1.00  0.00
  C11                     1.00   0.00  0.00  0.00  0.13  0.87  0.00  0.00  1.00  0.00
  C20                     1.00   0.00  0.00  0.00  0.71  0.29  0.00  0.00  0.99  0.00
  C22                     1.00   0.00  0.00  0.00  0.98  0.02  0.00  0.00  1.00  0.00
  C12                     1.00   0.00  0.00  0.00  0.78  0.22  0.00  0.00  1.00  0.00
  C17                     1.00   0.00  0.00  0.00  0.45  0.55  0.00  0.00  0.97  0.00
  C10                     1.00   0.00  0.00  0.00  0.88  0.12  0.00  0.00  0.98  0.00
  C13                     1.00   0.00  0.00  0.00  0.89  0.11  0.00  0.00  0.50  0.00
  C18                     1.00   0.00  0.00  0.00  0.92  0.08  0.00  0.00  0.98  0.00
  C23                     1.00   0.00  0.00  0.00  0.91  0.09  0.00  0.00  0.96  0.00
  C4                      1.00   0.00  0.00  0.00  0.91  0.09  0.00  0.00  0.98  0.00
  C7                      1.00   0.00  0.00  0.00  0.91  0.09  0.00  0.00  0.97  0.00
  C14                     1.00   0.00  0.00  0.00  0.00  1.00  0.00  0.00  0.34  0.00
  C5                      1.00   0.00  0.00  0.00  0.84  0.16  0.00  0.00  0.99  0.00
  C8                      1.00   0.00  0.00  0.00  0.08  0.92  0.00  0.00  0.00  0.00
  C15                     1.00   0.06  0.00  0.00  0.00  0.94  0.00  0.00  0.00  0.00
  C21                     1.00   0.00  0.00  0.00  0.00  1.00  0.00  0.00  0.00  0.00
  
  
  *************************
  Conduit Surcharge Summary
  *************************
  
  ----------------------------------------------------------------------------
                                                           Hours        Hours 
                         --------- Hours Full --------   Above Full   Capacity
  Conduit                Both Ends  Upstream  Dnstream   Normal Flow   Limited
  ----------------------------------------------------------------------------
  C10                         0.01      0.01     19.29      0.01         0.01
  C13                         0.01      0.01     19.03      0.01         0.01
  C18                         0.01      0.01     18.73      0.01         0.01
  C23                         0.01      0.01     20.52      0.01         0.01
  C4                          0.01      0.01     20.54      0.01         0.01
  C7                          0.01      0.01     19.96      0.01         0.01
  

  Analysis begun on:  Tue Sep 21 13:02:35 2021
  Analysis ended on:  Tue Sep 21 13:02:35 2021
  Total elapsed time: < 1 sec