
  EPA STORM WATER MANAGEMENT MODEL - VERSION 5.1 (Build 5.3.0.dev0)
  --------------------------------------------------------------

  WARNING 09: time series interval greater than recording interval for Rain Gage RG1
  WARNING 09: time series interval greater than recording interval for Rain Gage RG2
  WARNING 09: time series interval greater than recording interval for Rain Gage RG3
  WARNING 09: time series interval greater than recording interval for Rain Gage RG4
  
  *********************************************************
  NOTE: The summary statistics displayed in this report are
  based on results found at every computational time step,  
  not just on results from each reporting time step.
  *********************************************************
  
  ****************
  Analysis Options
  ****************
  Flow Units ............... CMS
  Process Models:
    Rainfall/Runoff ........ YES
    RDII ................... NO
    Snowmelt ............... NO
    Groundwater ............ NO
    Flow Routing ........... YES
    Ponding Allowed ........ YES
    Water Quality .......... NO
  Infiltration Method ...... HORTON
  Flow Routing Method ...... DYNWAVE
  Surcharge Method ......... EXTRAN
  Starting Date ............ 08/28/2015 00:00:00
  Ending Date .............. 08/28/2015 23:40:00
  Antecedent Dry Days ...... 0.0
  Report Time Step ......... 00:01:00
  Wet Time Step ............ 00:01:00
  Dry Time Step ............ 00:01:00
  Routing Time Step ........ 5.00 sec
  Variable Time Step ....... YES
  Maximum Trials ........... 8
  Number of Threads ........ 1
  Head Tolerance ........... 0.001500 m
  
  
  **************************        Volume         Depth
  Runoff Quantity Continuity     hectare-m            mm
  **************************     ---------       -------
  Total Precipitation ......         2.964        16.449
  Evaporation Loss .........         0.000         0.000
  Infiltration Loss ........         0.000         0.000
  Surface Runoff ...........         2.934        16.283
  Final Storage ............         0.033         0.181
  Continuity Error (%) .....        -0.092
  
  
  **************************        Volume        Volume
  Flow Routing Continuity        hectare-m      10^6 ltr
  **************************     ---------     ---------
  Dry Weather Inflow .......         0.758         7.576
  Wet Weather Inflow .......         2.934        29.342
  Groundwater Inflow .......         0.000         0.000
  RDII Inflow ..............         0.000         0.000
  External Inflow ..........         0.000         0.000
  External Outflow .........         1.860        18.595
  Flooding Loss ............         0.874         8.737
  Evaporation Loss .........         0.000         0.000
  Exfiltration Loss ........         0.000         0.000
  Initial Stored Volume ....         0.000         0.000
  Final Stored Volume ......         0.752         7.516
  Continuity Error (%) .....         5.606
  
  
  *************************
  Highest Continuity Errors
  *************************
  Node T2 (17.03%)
  Node T4 (11.10%)
  Node T3 (9.31%)
  Node T6 (7.11%)
  Node T5 (6.74%)
  
  
  ***************************
  Time-Step Critical Elements
  ***************************
  None
  
  
  ********************************
  Highest Flow Instability Indexes
  ********************************
  Link C15 (1)
  
  
  *************************
  Routing Time Step Summary
  *************************
  Minimum Time Step           :     0.37 sec
  Average Time Step           :     5.00 sec
  Maximum Time Step           :     5.00 sec
  Percent in Steady State     :     0.00
  Average Iterations per Step :     2.24
  Percent Not Converging      :     1.03
  
  
  ***************************
  Subcatchment Runoff Summary
  ***************************
  
  ------------------------------------------------------------------------------------------------------------------------------
                            Total      Total      Total      Total     Imperv       Perv      Total       Total     Peak  Runoff
                           Precip      Runon       Evap      Infil     Runoff     Runoff     Runoff      Runoff   Runoff   Coeff
  Subcatchment                 mm         mm         mm         mm         mm         mm         mm    10^6 ltr      CMS
  ------------------------------------------------------------------------------------------------------------------------------
  SC01                      12.65       0.00       0.00       0.00      12.56       0.00      12.56        4.15     0.47   0.993
  SC02                      15.05       0.00       0.00       0.00      14.95       0.00      14.95        3.40     0.55   0.994
  SC03                      19.28       0.00       0.00       0.00      19.22       0.00      19.22        3.46     0.63   0.997
  SC04                      15.05       0.00       0.00       0.00      14.83       0.00      14.83        1.02     0.12   0.985
  SC05                      12.65       0.00       0.00       0.00      12.55       0.00      12.55        1.96     0.21   0.992
  SC06                      20.18       0.00       0.00       0.00      19.81       0.00      19.81        6.45     0.63   0.982
  SC07                      15.05       0.00       0.00       0.00      14.83       0.00      14.83        0.70     0.08   0.985
  SC08                      19.28       0.00       0.00       0.00      19.11       0.00      19.11        5.35     0.63   0.991
  SC09                      20.18       0.00       0.00       0.00      19.97       0.00      19.97        1.38     0.19   0.990
  SC010                     12.65       0.00       0.00       0.00      12.53       0.00      12.53        1.47     0.14   0.990
  
  
  ******************
  Node Depth Summary
  ******************
  
  ---------------------------------------------------------------------------------
                                 Average  Maximum  Maximum  Time of Max    Reported
                                   Depth    Depth      HGL   Occurrence   Max Depth
  Node                 Type       Meters   Meters   Meters  days hr:min      Meters
  ---------------------------------------------------------------------------------
  J1                   JUNCTION     0.06     0.15    34.15     0  07:57        0.15
  J3                   JUNCTION     0.11     0.14    18.14     0  09:30        0.14
  CSO7                 JUNCTION     0.10     1.20    35.20     0  03:21        1.20
  J5                   JUNCTION     0.05     0.14    32.14     0  03:32        0.14
  CSO9                 JUNCTION     0.13     2.00    42.00     0  19:30        2.00
  J8                   JUNCTION     0.10     0.28    36.28     0  19:37        0.28
  CSO8                 JUNCTION     0.15     2.00    34.00     0  03:51        2.00
  J10                  JUNCTION     0.09     0.29    29.29     0  20:07        0.29
  J13                  JUNCTION     0.05     0.19    29.19     0  03:16        0.19
  J15                  JUNCTION     0.16     0.29    15.29     0  08:03        0.29
  J16                  JUNCTION     0.05     0.16    30.16     0  07:57        0.16
  CSO10                JUNCTION     0.09     0.32    30.32     0  07:56        0.32
  J12                  JUNCTION     0.68     1.05    27.05     0  20:10        1.05
  J4                   JUNCTION     0.11     1.44    34.44     0  03:22        0.75
  J6                   JUNCTION     0.06     0.07    25.07     0  10:09        0.07
  J2                   JUNCTION     0.07     0.08    25.08     0  09:14        0.08
  J19                  JUNCTION     0.15     0.17     8.17     0  08:05        0.17
  J9                   JUNCTION     0.09     0.11    29.11     0  09:35        0.11
  J14                  JUNCTION     0.13     0.15    20.15     0  20:09        0.15
  J17                  JUNCTION     0.06     0.08    20.08     0  09:31        0.08
  J7                   JUNCTION     0.08     0.23    39.23     0  19:43        0.23
  J11                  JUNCTION     0.09     0.29    31.29     0  20:08        0.29
  J18                  JUNCTION     0.04     0.13    29.13     0  08:03        0.13
  Out_to_WWTP          OUTFALL      0.15     0.17     6.17     0  11:50        0.17
  T5                   STORAGE      3.14     5.00    32.00     0  08:27        5.00
  T4                   STORAGE      3.81     5.00    32.00     0  08:02        5.00
  T6                   STORAGE      4.08     5.00    36.00     0  04:24        5.00
  T3                   STORAGE      4.04     5.00    27.00     0  07:51        5.00
  T2                   STORAGE      3.82     5.00    26.00     0  07:53        5.00
  T1                   STORAGE      3.69     5.00    15.00     0  04:26        5.00
  
  
  *******************
  Node Inflow Summary
  *******************
  
  -------------------------------------------------------------------------------------------------
                                  Maximum  Maximum                  Lateral       Total        Flow
                                  Lateral    Total  Time of Max      Inflow      Inflow     Balance
                                   Inflow   Inflow   Occurrence      Volume      Volume       Error
  Node                 Type           CMS      CMS  days hr:min    10^6 ltr    10^6 ltr     Percent
  -------------------------------------------------------------------------------------------------
  J1                   JUNCTION     0.227    0.227     0  07:56        3.05        3.05      -0.058
  J3                   JUNCTION     0.000    0.191     0  09:52           0        12.2       0.291
  CSO7                 JUNCTION     0.084    0.084     0  03:31        1.27        1.27       0.014
  J5                   JUNCTION     0.119    0.190     0  03:31        1.27        2.54      -0.018
  CSO9                 JUNCTION     0.196    0.196     0  19:31        1.76        1.76      -0.011
  J8                   JUNCTION     0.660    0.774     0  19:36        8.28          10       0.004
  CSO8                 JUNCTION     0.635    0.635     0  20:01         5.8         5.8      -0.044
  J10                  JUNCTION     0.638    0.983     0  20:06        4.21        9.98      -0.069
  J13                  JUNCTION     0.553    0.553     0  03:16        4.31        4.31      -0.176
  J15                  JUNCTION     0.000    0.760     0  07:57           0        21.3       0.348
  J16                  JUNCTION     0.483    0.483     0  07:56        5.22        5.22      -0.045
  CSO10                JUNCTION     0.143    0.143     0  07:56        1.74        1.74       0.006
  J12                  JUNCTION     0.000    0.990     0  20:07           0        15.3       4.888
  J4                   JUNCTION     0.000    0.080     0  03:21           0        1.27       0.032
  J6                   JUNCTION     0.000    0.028     0  08:02           0        1.58       0.246
  J2                   JUNCTION     0.000    0.039     0  08:27           0        2.49       0.164
  J19                  JUNCTION     0.000    0.271     0  04:27           0        18.6       0.059
  J9                   JUNCTION     0.000    0.075     0  04:24           0        5.17       0.320
  J14                  JUNCTION     0.000    0.124     0  07:51           0        8.15       0.090
  J17                  JUNCTION     0.000    0.033     0  08:30           0        2.14       0.177
  J7                   JUNCTION     0.000    0.127     0  19:43           0        1.73       0.089
  J11                  JUNCTION     0.000    0.486     0  20:08           0        5.77       0.095
  J18                  JUNCTION     0.000    0.135     0  07:57           0        1.74       0.002
  Out_to_WWTP          OUTFALL      0.000    0.271     0  08:05           0        18.6       0.000
  T5                   STORAGE      0.000    0.209     0  07:57           0        3.05       7.231
  T4                   STORAGE      0.000    0.182     0  03:32           0        2.54      12.487
  T6                   STORAGE      0.000    0.734     0  19:37           0          10       7.657
  T3                   STORAGE      0.000    1.200     0  20:13           0        14.6      10.262
  T2                   STORAGE      0.000    0.508     0  03:16           0        4.32      20.525
  T1                   STORAGE      0.000    0.715     0  08:03           0        21.2       2.789
  
  
  **********************
  Node Surcharge Summary
  **********************
  
  Surcharging occurs when water rises above the top of the highest conduit.
  ---------------------------------------------------------------------
                                               Max. Height   Min. Depth
                                   Hours       Above Crown    Below Rim
  Node                 Type      Surcharged         Meters       Meters
  ---------------------------------------------------------------------
  CSO7                 JUNCTION        0.68          0.945        0.000
  CSO9                 JUNCTION        0.81          1.682        0.000
  CSO8                 JUNCTION        0.98          1.547        0.000
  J4                   JUNCTION        0.77          1.138        0.562
  
  
  *********************
  Node Flooding Summary
  *********************
  
  Flooding refers to all water that overflows a node, whether it ponds or not.
  --------------------------------------------------------------------------
                                                             Total   Maximum
                                 Maximum   Time of Max       Flood    Ponded
                        Hours       Rate    Occurrence      Volume     Depth
  Node                 Flooded       CMS   days hr:min    10^6 ltr    Meters
  --------------------------------------------------------------------------
  CSO7                    0.18     0.013      0  03:31       0.003     0.000
  CSO9                    0.24     0.078      0  19:31       0.027     0.000
  CSO8                    0.13     0.161      0  20:01       0.031     0.000
  T5                      2.15     0.064      0  08:27       0.162     0.000
  T4                      3.36     0.100      0  08:12       0.292     0.000
  T6                      7.43     0.659      0  19:37       3.623     0.000
  T3                      3.60     1.076      0  20:13       2.374     0.000
  T2                      2.77     0.294      0  08:07       0.680     0.000
  T1                      4.02     0.445      0  08:03       1.546     0.000
  
  
  **********************
  Storage Volume Summary
  **********************
  
  --------------------------------------------------------------------------------------------------
                         Average     Avg  Evap Exfil       Maximum     Max    Time of Max    Maximum
                          Volume    Pcnt  Pcnt  Pcnt        Volume    Pcnt     Occurrence    Outflow
  Storage Unit           1000 m3    Full  Loss  Loss       1000 m3    Full    days hr:min        CMS
  --------------------------------------------------------------------------------------------------
  T5                       0.314      63     0     0         0.500     100       0  08:27      0.039
  T4                       0.381      76     0     0         0.500     100       0  08:02      0.028
  T6                       0.489      82     0     0         0.600     100       0  04:24      0.075
  T3                       2.100      81     0     0         2.600     100       0  07:51      0.153
  T2                       0.765      76     0     0         1.000     100       0  07:53      0.033
  T1                       0.517      74     0     0         0.700     100       0  04:26      0.271
  
  
  ***********************
  Outfall Loading Summary
  ***********************
  
  -----------------------------------------------------------
                         Flow       Avg       Max       Total
                         Freq      Flow      Flow      Volume
  Outfall Node           Pcnt       CMS       CMS    10^6 ltr
  -----------------------------------------------------------
  Out_to_WWTP           99.43     0.220     0.271      18.595
  -----------------------------------------------------------
  System                99.43     0.220     0.271      18.595
  
  
  ********************
  Link Flow Summary
  ********************
  
  -----------------------------------------------------------------------------
                                 Maximum  Time of Max   Maximum    Max/    Max/
                                  |Flow|   Occurrence   |Veloc|    Full    Full
  Link                 Type          CMS  days hr:min     m/sec    Flow   Depth
  -----------------------------------------------------------------------------
  C1                   CONDUIT     0.039     0  09:14      0.99    0.01    0.11
  C6                   CONDUIT     0.071     0  03:32      1.28    1.12    0.74
  C2                   CONDUIT     0.028     0  09:53      1.02    0.03    0.18
  C9                   CONDUIT     0.126     0  19:43      1.31    0.43    0.50
  C16                  CONDUIT     0.483     0  20:08      1.74    0.05    0.15
  C3                   CONDUIT     0.124     0  09:52      1.85    0.05    0.14
  C19                  CONDUIT     0.033     0  09:31      0.67    0.01    0.17
  C11                  CONDUIT     0.191     0  09:30      1.76    0.01    0.11
  C20                  CONDUIT     0.443     0  07:57      2.37    0.01    0.11
  C22                  CONDUIT     0.127     0  08:03      1.32    0.06    0.26
  C12                  CONDUIT     0.075     0  09:35      0.65    0.01    0.29
  C17                  CONDUIT     0.915     0  20:07      2.65    0.05    0.33
  C10                  CONDUIT     0.734     0  19:37      1.06    0.08    0.59
  C13                  CONDUIT     1.200     0  20:13      1.55    0.07    0.76
  C18                  CONDUIT     0.508     0  03:16      1.11    0.02    0.54
  C23                  CONDUIT     0.715     0  08:03      1.19    0.08    0.60
  C4                   CONDUIT     0.209     0  07:57      1.17    0.05    0.58
  C7                   CONDUIT     0.182     0  03:32      0.83    0.04    0.57
  C14                  CONDUIT     0.271     0  08:05      2.08    0.02    0.09
  C5                   CONDUIT     0.080     0  03:21      1.56    1.37    1.00
  C8                   CONDUIT     0.127     0  19:43      1.91    1.60    0.86
  C15                  CONDUIT     0.486     0  20:08      3.56    1.54    0.82
  C21                  CONDUIT     0.135     0  07:57      1.75    0.77    0.51
  V4                   ORIFICE     0.028     0  08:02                      0.35
  V5                   ORIFICE     0.039     0  08:27                      1.00
  V1                   ORIFICE     0.271     0  04:27                      1.00
  V6                   ORIFICE     0.075     0  04:24                      0.43
  V3                   ORIFICE     0.124     0  07:51                      0.65
  V2                   ORIFICE     0.033     0  08:30                      0.24
  
  
  ***************************
  Flow Classification Summary
  ***************************
  
  -------------------------------------------------------------------------------------
                      Adjusted    ---------- Fraction of Time in Flow Class ---------- 
                       /Actual         Up    Down  Sub   Sup   Up    Down  Norm  Inlet 
  Conduit               Length    Dry  Dry   Dry   Crit  Crit  Crit  Crit  Ltd   Ctrl  
  -------------------------------------------------------------------------------------
  C1                      1.00   0.00  0.00  0.00  0.48  0.52  0.00  0.00  0.96  0.00
  C6                      1.00   0.00  0.00  0.00  0.06  0.94  0.00  0.00  0.00  0.00
  C2                      1.00   0.00  0.00  0.00  0.73  0.26  0.00  0.00  0.97  0.00
  C9                      1.00   0.00  0.00  0.00  1.00  0.00  0.00  0.00  1.00  0.00
  C16                     1.00   0.00  0.08  0.00  0.41  0.51  0.00  0.00  0.28  0.00
  C3                      1.00   0.00  0.00  0.00  0.03  0.96  0.00  0.00  0.20  0.00
  C19                     1.00   0.00  0.00  0.00  1.00  0.00  0.00  0.00  1.00  0.00
  C11                     1.00   0.00  0.00  0.00  0.16  0.83  0.00  0.00  1.00  0.00
  C20                     1.00   0.00  0.00  0.00  0.73  0.27  0.00  0.00  0.99  0.00
  C22                     1.00   0.00  0.00  0.00  0.93  0.07  0.00  0.00  1.00  0.00
  C12                     1.00   0.00  0.00  0.00  0.98  0.02  0.00  0.00  1.00  0.00
  C17                     1.00   0.00  0.00  0.00  0.87  0.13  0.00  0.00  0.97  0.00
  C10                     1.00   0.00  0.00  0.00  0.89  0.11  0.00  0.00  0.98  0.00
  C13                     1.00   0.00  0.00  0.00  0.89  0.11  0.00  0.00  0.10  0.00
  C18                     1.00   0.00  0.00  0.00  0.92  0.08  0.00  0.00  0.98  0.00
  C23                     1.00   0.00  0.00  0.00  0.89  0.11  0.00  0.00  0.96  0.00
  C4                      1.00   0.00  0.00  0.00  0.90  0.10  0.00  0.00  0.97  0.00
  C7                      1.00   0.00  0.00  0.00  0.90  0.10  0.00  0.00  0.97  0.00
  C14                     1.00   0.00  0.00  0.00  0.00  1.00  0.00  0.00  0.16  0.00
  C5                      1.00   0.00  0.00  0.00  0.90  0.10  0.00  0.00  0.94  0.00
  C8                      1.00   0.00  0.00  0.00  0.15  0.85  0.00  0.00  0.00  0.00
  C15                     1.00   0.08  0.00  0.00  0.00  0.92  0.00  0.00  0.00  0.00
  C21                     1.00   0.00  0.00  0.00  0.00  1.00  0.00  0.00  0.00  0.00
  
  
  *************************
  Conduit Surcharge Summary
  *************************
  
  ----------------------------------------------------------------------------
                                                           Hours        Hours 
                         --------- Hours Full --------   Above Full   Capacity
  Conduit                Both Ends  Upstream  Dnstream   Normal Flow   Limited
  ----------------------------------------------------------------------------
  C6                          0.01      0.77      0.01      0.32         0.01
  C10                         0.01      0.01     20.28      0.01         0.01
  C13                         0.01      0.01     19.96      0.01         0.01
  C18                         0.01      0.01     20.10      0.01         0.01
  C23                         0.01      0.01     20.42      0.01         0.01
  C4                          0.01      0.01     20.45      0.01         0.01
  C7                          0.01      0.01     20.26      0.01         0.01
  C5                          0.64      0.68      1.19      0.89         0.53
  C8                          0.01      0.81      0.01      0.82         0.01
  C15                         0.01      0.98      0.01      1.36         0.01
  

  Analysis begun on:  Tue Sep 21 13:16:32 2021
  Analysis ended on:  Tue Sep 21 13:16:33 2021
  Total elapsed time: 00:00:01