
  EPA STORM WATER MANAGEMENT MODEL - VERSION 5.1 (Build 5.3.0.dev0)
  --------------------------------------------------------------

  WARNING 09: time series interval greater than recording interval for Rain Gage RG1
  WARNING 09: time series interval greater than recording interval for Rain Gage RG2
  WARNING 09: time series interval greater than recording interval for Rain Gage RG3
  WARNING 09: time series interval greater than recording interval for Rain Gage RG4
  
  *********************************************************
  NOTE: The summary statistics displayed in this report are
  based on results found at every computational time step,  
  not just on results from each reporting time step.
  *********************************************************
  
  ****************
  Analysis Options
  ****************
  Flow Units ............... CMS
  Process Models:
    Rainfall/Runoff ........ YES
    RDII ................... NO
    Snowmelt ............... NO
    Groundwater ............ NO
    Flow Routing ........... YES
    Ponding Allowed ........ YES
    Water Quality .......... NO
  Infiltration Method ...... HORTON
  Flow Routing Method ...... DYNWAVE
  Surcharge Method ......... EXTRAN
  Starting Date ............ 08/28/2015 00:00:00
  Ending Date .............. 08/28/2015 23:40:00
  Antecedent Dry Days ...... 0.0
  Report Time Step ......... 00:01:00
  Wet Time Step ............ 00:01:00
  Dry Time Step ............ 00:01:00
  Routing Time Step ........ 5.00 sec
  Variable Time Step ....... YES
  Maximum Trials ........... 8
  Number of Threads ........ 1
  Head Tolerance ........... 0.001500 m
  
  
  **************************        Volume         Depth
  Runoff Quantity Continuity     hectare-m            mm
  **************************     ---------       -------
  Total Precipitation ......         1.980        10.989
  Evaporation Loss .........         0.000         0.000
  Infiltration Loss ........         0.000         0.000
  Surface Runoff ...........         1.963        10.895
  Final Storage ............         0.018         0.100
  Continuity Error (%) .....        -0.055
  
  
  **************************        Volume        Volume
  Flow Routing Continuity        hectare-m      10^6 ltr
  **************************     ---------     ---------
  Dry Weather Inflow .......         0.758         7.576
  Wet Weather Inflow .......         1.963        19.633
  Groundwater Inflow .......         0.000         0.000
  RDII Inflow ..............         0.000         0.000
  External Inflow ..........         0.000         0.000
  External Outflow .........         1.458        14.582
  Flooding Loss ............         0.517         5.170
  Evaporation Loss .........         0.000         0.000
  Exfiltration Loss ........         0.000         0.000
  Initial Stored Volume ....         0.000         0.000
  Final Stored Volume ......         0.605         6.047
  Continuity Error (%) .....         5.179
  
  
  *************************
  Highest Continuity Errors
  *************************
  Node T2 (19.23%)
  Node T3 (11.90%)
  Node T4 (9.74%)
  Node T5 (6.46%)
  Node T6 (6.30%)
  
  
  ***************************
  Time-Step Critical Elements
  ***************************
  None
  
  
  ********************************
  Highest Flow Instability Indexes
  ********************************
  Link C15 (1)
  
  
  *************************
  Routing Time Step Summary
  *************************
  Minimum Time Step           :     4.50 sec
  Average Time Step           :     5.00 sec
  Maximum Time Step           :     5.00 sec
  Percent in Steady State     :     0.00
  Average Iterations per Step :     2.00
  Percent Not Converging      :     0.00
  
  
  ***************************
  Subcatchment Runoff Summary
  ***************************
  
  ------------------------------------------------------------------------------------------------------------------------------
                            Total      Total      Total      Total     Imperv       Perv      Total       Total     Peak  Runoff
                           Precip      Runon       Evap      Infil     Runoff     Runoff     Runoff      Runoff   Runoff   Coeff
  Subcatchment                 mm         mm         mm         mm         mm         mm         mm    10^6 ltr      CMS
  ------------------------------------------------------------------------------------------------------------------------------
  SC01                      11.21       0.00       0.00       0.00      11.15       0.00      11.15        3.68     0.31   0.995
  SC02                      11.35       0.00       0.00       0.00      11.28       0.00      11.28        2.57     0.16   0.994
  SC03                      10.60       0.00       0.00       0.00      10.54       0.00      10.54        1.90     0.17   0.994
  SC04                      11.35       0.00       0.00       0.00      11.23       0.00      11.23        0.77     0.04   0.989
  SC05                      11.21       0.00       0.00       0.00      11.15       0.00      11.15        1.74     0.14   0.994
  SC06                      10.79       0.00       0.00       0.00      10.63       0.00      10.63        3.46     0.21   0.985
  SC07                      11.35       0.00       0.00       0.00      11.23       0.00      11.23        0.53     0.03   0.989
  SC08                      10.60       0.00       0.00       0.00      10.49       0.00      10.49        2.94     0.19   0.990
  SC09                      10.79       0.00       0.00       0.00      10.68       0.00      10.68        0.74     0.06   0.989
  SC010                     11.21       0.00       0.00       0.00      11.14       0.00      11.14        1.31     0.10   0.994
  
  
  ******************
  Node Depth Summary
  ******************
  
  ---------------------------------------------------------------------------------
                                 Average  Maximum  Maximum  Time of Max    Reported
                                   Depth    Depth      HGL   Occurrence   Max Depth
  Node                 Type       Meters   Meters   Meters  days hr:min      Meters
  ---------------------------------------------------------------------------------
  J1                   JUNCTION     0.05     0.13    34.13     0  10:12        0.13
  J3                   JUNCTION     0.10     0.14    18.14     0  15:41        0.14
  CSO7                 JUNCTION     0.07     0.15    34.15     0  11:56        0.15
  J5                   JUNCTION     0.05     0.10    32.10     0  11:57        0.10
  CSO9                 JUNCTION     0.08     0.24    40.24     0  07:17        0.23
  J8                   JUNCTION     0.08     0.18    36.18     0  07:23        0.18
  CSO8                 JUNCTION     0.08     0.28    32.28     0  08:36        0.27
  J10                  JUNCTION     0.07     0.18    29.18     0  08:42        0.18
  J13                  JUNCTION     0.05     0.11    29.11     0  08:37        0.11
  J15                  JUNCTION     0.14     0.25    15.25     0  10:23        0.25
  J16                  JUNCTION     0.05     0.14    30.14     0  10:12        0.14
  CSO10                JUNCTION     0.08     0.26    30.26     0  10:12        0.26
  J12                  JUNCTION     0.43     1.02    27.02     0  13:49        1.02
  J4                   JUNCTION     0.09     0.18    33.18     0  11:58        0.18
  J6                   JUNCTION     0.05     0.07    25.07     0  12:46        0.07
  J2                   JUNCTION     0.06     0.08    25.08     0  11:49        0.08
  J19                  JUNCTION     0.13     0.17     8.17     0  10:17        0.17
  J9                   JUNCTION     0.08     0.11    29.11     0  10:37        0.11
  J14                  JUNCTION     0.10     0.15    20.15     0  15:31        0.15
  J17                  JUNCTION     0.05     0.08    20.08     0  13:41        0.08
  J7                   JUNCTION     0.06     0.16    39.16     0  07:23        0.16
  J11                  JUNCTION     0.07     0.19    31.19     0  08:43        0.19
  J18                  JUNCTION     0.04     0.11    29.11     0  10:23        0.11
  Out_to_WWTP          OUTFALL      0.13     0.17     6.17     0  13:54        0.17
  T5                   STORAGE      2.48     5.00    32.00     0  11:04        5.00
  T4                   STORAGE      2.69     5.00    32.00     0  11:59        5.00
  T6                   STORAGE      2.91     5.00    36.00     0  09:22        5.00
  T3                   STORAGE      2.88     5.00    27.00     0  13:42        5.00
  T2                   STORAGE      2.74     5.00    26.00     0  12:04        5.00
  T1                   STORAGE      2.73     5.00    15.00     0  10:16        5.00
  
  
  *******************
  Node Inflow Summary
  *******************
  
  -------------------------------------------------------------------------------------------------
                                  Maximum  Maximum                  Lateral       Total        Flow
                                  Lateral    Total  Time of Max      Inflow      Inflow     Balance
                                   Inflow   Inflow   Occurrence      Volume      Volume       Error
  Node                 Type           CMS      CMS  days hr:min    10^6 ltr    10^6 ltr     Percent
  -------------------------------------------------------------------------------------------------
  J1                   JUNCTION     0.162    0.162     0  10:11        2.83        2.83      -0.050
  J3                   JUNCTION     0.000    0.189     0  15:32           0        9.31       0.358
  CSO7                 JUNCTION     0.040    0.040     0  11:56         1.1         1.1       0.011
  J5                   JUNCTION     0.046    0.084     0  11:56        1.02        2.12      -0.016
  CSO9                 JUNCTION     0.069    0.069     0  07:16        1.12        1.12       0.010
  J8                   JUNCTION     0.242    0.299     0  07:21        5.29        6.41      -0.021
  CSO8                 JUNCTION     0.204    0.204     0  08:41        3.39        3.39      -0.002
  J10                  JUNCTION     0.184    0.334     0  08:41        2.65        6.03      -0.078
  J13                  JUNCTION     0.178    0.178     0  08:36        3.48        3.48      -0.149
  J15                  JUNCTION     0.000    0.547     0  10:22           0        17.3       0.422
  J16                  JUNCTION     0.334    0.334     0  10:11        4.76        4.76      -0.041
  CSO10                JUNCTION     0.101    0.101     0  10:11        1.58        1.58       0.003
  J12                  JUNCTION     0.000    0.386     0  11:08           0        10.1       1.178
  J4                   JUNCTION     0.000    0.039     0  11:56           0         1.1       0.100
  J6                   JUNCTION     0.000    0.028     0  11:59           0        1.38       0.248
  J2                   JUNCTION     0.000    0.039     0  11:04           0        2.03       0.192
  J19                  JUNCTION     0.000    0.271     0  10:16           0        14.6       0.072
  J9                   JUNCTION     0.000    0.075     0  09:22           0        4.04       0.268
  J14                  JUNCTION     0.000    0.124     0  15:35           0        5.91       0.119
  J17                  JUNCTION     0.000    0.033     0  12:10           0        1.65       0.352
  J7                   JUNCTION     0.000    0.065     0  07:22           0        1.12       0.095
  J11                  JUNCTION     0.000    0.202     0  08:41           0        3.39       0.052
  J18                  JUNCTION     0.000    0.096     0  10:21           0        1.58      -0.021
  Out_to_WWTP          OUTFALL      0.000    0.271     0  10:18           0        14.6       0.000
  T5                   STORAGE      0.000    0.148     0  10:12           0        2.83       6.905
  T4                   STORAGE      0.000    0.082     0  11:57           0        2.12      10.790
  T6                   STORAGE      0.000    0.288     0  07:23           0        6.41       6.729
  T3                   STORAGE      0.000    0.382     0  11:14           0        9.98      13.502
  T2                   STORAGE      0.000    0.166     0  08:37           0        3.48      23.808
  T1                   STORAGE      0.000    0.528     0  10:23           0        17.2       3.107
  
  
  **********************
  Node Surcharge Summary
  **********************
  
  No nodes were surcharged.
  
  
  *********************
  Node Flooding Summary
  *********************
  
  Flooding refers to all water that overflows a node, whether it ponds or not.
  --------------------------------------------------------------------------
                                                             Total   Maximum
                                 Maximum   Time of Max       Flood    Ponded
                        Hours       Rate    Occurrence      Volume     Depth
  Node                 Flooded       CMS   days hr:min    10^6 ltr    Meters
  --------------------------------------------------------------------------
  T5                      2.85     0.089      0  11:22       0.443     0.000
  T4                      2.62     0.053      0  11:59       0.256     0.000
  T6                      5.64     0.142      0  09:22       1.694     0.000
  T3                      1.57     0.295      0  13:53       0.652     0.000
  T2                      2.57     0.109      0  12:06       0.471     0.000
  T1                      3.46     0.258      0  10:23       1.655     0.000
  
  
  **********************
  Storage Volume Summary
  **********************
  
  --------------------------------------------------------------------------------------------------
                         Average     Avg  Evap Exfil       Maximum     Max    Time of Max    Maximum
                          Volume    Pcnt  Pcnt  Pcnt        Volume    Pcnt     Occurrence    Outflow
  Storage Unit           1000 m3    Full  Loss  Loss       1000 m3    Full    days hr:min        CMS
  --------------------------------------------------------------------------------------------------
  T5                       0.248      50     0     0         0.500     100       0  11:04      0.039
  T4                       0.269      54     0     0         0.500     100       0  11:59      0.028
  T6                       0.349      58     0     0         0.600     100       0  09:22      0.075
  T3                       1.499      58     0     0         2.600     100       0  13:42      0.124
  T2                       0.547      55     0     0         1.000     100       0  12:04      0.033
  T1                       0.383      55     0     0         0.700     100       0  10:16      0.271
  
  
  ***********************
  Outfall Loading Summary
  ***********************
  
  -----------------------------------------------------------
                         Flow       Avg       Max       Total
                         Freq      Flow      Flow      Volume
  Outfall Node           Pcnt       CMS       CMS    10^6 ltr
  -----------------------------------------------------------
  Out_to_WWTP           99.43     0.172     0.271      14.582
  -----------------------------------------------------------
  System                99.43     0.172     0.271      14.582
  
  
  ********************
  Link Flow Summary
  ********************
  
  -----------------------------------------------------------------------------
                                 Maximum  Time of Max   Maximum    Max/    Max/
                                  |Flow|   Occurrence   |Veloc|    Full    Full
  Link                 Type          CMS  days hr:min     m/sec    Flow   Depth
  -----------------------------------------------------------------------------
  C1                   CONDUIT     0.039     0  11:49      1.04    0.01    0.11
  C6                   CONDUIT     0.038     0  11:58      1.18    0.61    0.47
  C2                   CONDUIT     0.028     0  12:46      1.01    0.03    0.17
  C9                   CONDUIT     0.061     0  07:24      1.08    0.21    0.33
  C16                  CONDUIT     0.188     0  08:43      1.32    0.02    0.09
  C3                   CONDUIT     0.124     0  15:32      1.82    0.05    0.14
  C19                  CONDUIT     0.033     0  13:41      0.68    0.01    0.15
  C11                  CONDUIT     0.188     0  15:41      1.74    0.01    0.09
  C20                  CONDUIT     0.302     0  10:12      2.51    0.01    0.09
  C22                  CONDUIT     0.092     0  10:23      1.15    0.04    0.22
  C12                  CONDUIT     0.075     0  10:36      0.83    0.01    0.28
  C17                  CONDUIT     0.321     0  08:42      2.23    0.02    0.28
  C10                  CONDUIT     0.288     0  07:23      0.94    0.03    0.56
  C13                  CONDUIT     0.382     0  11:14      0.92    0.02    0.75
  C18                  CONDUIT     0.166     0  08:37      1.01    0.01    0.53
  C23                  CONDUIT     0.528     0  10:23      1.05    0.06    0.58
  C4                   CONDUIT     0.148     0  10:12      1.13    0.04    0.56
  C7                   CONDUIT     0.082     0  11:57      0.83    0.02    0.55
  C14                  CONDUIT     0.271     0  10:18      2.08    0.02    0.09
  C5                   CONDUIT     0.039     0  11:56      1.11    0.67    0.66
  C8                   CONDUIT     0.065     0  07:22      1.35    0.82    0.60
  C15                  CONDUIT     0.202     0  08:41      2.47    0.64    0.51
  C21                  CONDUIT     0.096     0  10:21      1.65    0.55    0.41
  V4                   ORIFICE     0.028     0  11:59                      0.35
  V5                   ORIFICE     0.039     0  11:04                      1.00
  V1                   ORIFICE     0.271     0  10:16                      1.00
  V6                   ORIFICE     0.075     0  09:22                      0.43
  V3                   ORIFICE     0.124     0  15:35                      0.65
  V2                   ORIFICE     0.033     0  12:10                      0.24
  
  
  ***************************
  Flow Classification Summary
  ***************************
  
  -------------------------------------------------------------------------------------
                      Adjusted    ---------- Fraction of Time in Flow Class ---------- 
                       /Actual         Up    Down  Sub   Sup   Up    Down  Norm  Inlet 
  Conduit               Length    Dry  Dry   Dry   Crit  Crit  Crit  Crit  Ltd   Ctrl  
  -------------------------------------------------------------------------------------
  C1                      1.00   0.00  0.00  0.00  0.48  0.52  0.00  0.00  0.96  0.00
  C6                      1.00   0.00  0.00  0.00  0.01  0.99  0.00  0.00  0.00  0.00
  C2                      1.00   0.00  0.00  0.00  0.70  0.30  0.00  0.00  0.97  0.00
  C9                      1.00   0.00  0.00  0.00  1.00  0.00  0.00  0.00  1.00  0.00
  C16                     1.00   0.00  0.25  0.00  0.34  0.41  0.00  0.00  0.26  0.00
  C3                      1.00   0.00  0.00  0.00  0.03  0.96  0.00  0.00  0.28  0.00
  C19                     1.00   0.00  0.00  0.00  1.00  0.00  0.00  0.00  1.00  0.00
  C11                     1.00   0.00  0.00  0.00  0.13  0.87  0.00  0.00  1.00  0.00
  C20                     1.00   0.00  0.00  0.00  0.66  0.34  0.00  0.00  0.99  0.00
  C22                     1.00   0.00  0.00  0.00  0.97  0.03  0.00  0.00  1.00  0.00
  C12                     1.00   0.00  0.00  0.00  0.79  0.21  0.00  0.00  0.89  0.00
  C17                     1.00   0.00  0.00  0.00  0.76  0.24  0.00  0.00  0.98  0.00
  C10                     1.00   0.00  0.00  0.00  0.90  0.10  0.00  0.00  0.98  0.00
  C13                     1.00   0.00  0.00  0.00  0.84  0.16  0.00  0.00  0.40  0.00
  C18                     1.00   0.00  0.00  0.00  0.94  0.06  0.00  0.00  0.98  0.00
  C23                     1.00   0.00  0.00  0.00  0.79  0.21  0.00  0.00  0.96  0.00
  C4                      1.00   0.00  0.00  0.00  0.82  0.18  0.00  0.00  0.98  0.00
  C7                      1.00   0.00  0.00  0.00  0.91  0.09  0.00  0.00  0.97  0.00
  C14                     1.00   0.00  0.00  0.00  0.00  1.00  0.00  0.00  0.13  0.00
  C5                      1.00   0.00  0.00  0.00  0.94  0.06  0.00  0.00  0.99  0.00
  C8                      1.00   0.00  0.00  0.00  0.18  0.82  0.00  0.00  0.00  0.00
  C15                     1.00   0.25  0.00  0.00  0.00  0.74  0.00  0.00  0.01  0.00
  C21                     1.00   0.00  0.00  0.00  0.00  1.00  0.00  0.00  0.00  0.00
  
  
  *************************
  Conduit Surcharge Summary
  *************************
  
  ----------------------------------------------------------------------------
                                                           Hours        Hours 
                         --------- Hours Full --------   Above Full   Capacity
  Conduit                Both Ends  Upstream  Dnstream   Normal Flow   Limited
  ----------------------------------------------------------------------------
  C10                         0.01      0.01     16.13      0.01         0.01
  C13                         0.01      0.01     14.74      0.01         0.01
  C18                         0.01      0.01     14.59      0.01         0.01
  C23                         0.01      0.01     15.92      0.01         0.01
  C4                          0.01      0.01     16.10      0.01         0.01
  C7                          0.01      0.01     15.54      0.01         0.01
  

  Analysis begun on:  Tue Sep 21 13:24:31 2021
  Analysis ended on:  Tue Sep 21 13:24:32 2021
  Total elapsed time: 00:00:01