
  EPA STORM WATER MANAGEMENT MODEL - VERSION 5.1 (Build 5.3.0.dev0)
  --------------------------------------------------------------

  WARNING 09: time series interval greater than recording interval for Rain Gage RG1
  WARNING 09: time series interval greater than recording interval for Rain Gage RG2
  WARNING 09: time series interval greater than recording interval for Rain Gage RG3
  WARNING 09: time series interval greater than recording interval for Rain Gage RG4
  
  *********************************************************
  NOTE: The summary statistics displayed in this report are
  based on results found at every computational time step,  
  not just on results from each reporting time step.
  *********************************************************
  
  ****************
  Analysis Options
  ****************
  Flow Units ............... CMS
  Process Models:
    Rainfall/Runoff ........ YES
    RDII ................... NO
    Snowmelt ............... NO
    Groundwater ............ NO
    Flow Routing ........... YES
    Ponding Allowed ........ YES
    Water Quality .......... NO
  Infiltration Method ...... HORTON
  Flow Routing Method ...... DYNWAVE
  Surcharge Method ......... EXTRAN
  Starting Date ............ 08/28/2015 00:00:00
  Ending Date .............. 08/28/2015 23:40:00
  Antecedent Dry Days ...... 0.0
  Report Time Step ......... 00:01:00
  Wet Time Step ............ 00:01:00
  Dry Time Step ............ 00:01:00
  Routing Time Step ........ 5.00 sec
  Variable Time Step ....... YES
  Maximum Trials ........... 8
  Number of Threads ........ 1
  Head Tolerance ........... 0.001500 m
  
  
  **************************        Volume         Depth
  Runoff Quantity Continuity     hectare-m            mm
  **************************     ---------       -------
  Total Precipitation ......         2.622        14.552
  Evaporation Loss .........         0.000         0.000
  Infiltration Loss ........         0.000         0.000
  Surface Runoff ...........         2.557        14.190
  Final Storage ............         0.067         0.374
  Continuity Error (%) .....        -0.082
  
  
  **************************        Volume        Volume
  Flow Routing Continuity        hectare-m      10^6 ltr
  **************************     ---------     ---------
  Dry Weather Inflow .......         0.758         7.576
  Wet Weather Inflow .......         2.557        25.566
  Groundwater Inflow .......         0.000         0.000
  RDII Inflow ..............         0.000         0.000
  External Inflow ..........         0.000         0.000
  External Outflow .........         1.357        13.570
  Flooding Loss ............         0.793         7.931
  Evaporation Loss .........         0.000         0.000
  Exfiltration Loss ........         0.000         0.000
  Initial Stored Volume ....         0.000         0.000
  Final Stored Volume ......         0.863         8.626
  Continuity Error (%) .....         9.095
  
  
  *************************
  Highest Continuity Errors
  *************************
  Node T2 (20.51%)
  Node T5 (15.19%)
  Node T4 (13.68%)
  Node T3 (12.09%)
  Node T6 (10.73%)
  
  
  ***************************
  Time-Step Critical Elements
  ***************************
  None
  
  
  ********************************
  Highest Flow Instability Indexes
  ********************************
  Link C15 (1)
  
  
  *************************
  Routing Time Step Summary
  *************************
  Minimum Time Step           :     1.13 sec
  Average Time Step           :     5.00 sec
  Maximum Time Step           :     5.00 sec
  Percent in Steady State     :     0.00
  Average Iterations per Step :     2.06
  Percent Not Converging      :     0.38
  
  
  ***************************
  Subcatchment Runoff Summary
  ***************************
  
  ------------------------------------------------------------------------------------------------------------------------------
                            Total      Total      Total      Total     Imperv       Perv      Total       Total     Peak  Runoff
                           Precip      Runon       Evap      Infil     Runoff     Runoff     Runoff      Runoff   Runoff   Coeff
  Subcatchment                 mm         mm         mm         mm         mm         mm         mm    10^6 ltr      CMS
  ------------------------------------------------------------------------------------------------------------------------------
  SC01                      12.87       0.00       0.00       0.00      12.66       0.00      12.66        4.18     0.49   0.984
  SC02                      16.22       0.00       0.00       0.00      15.99       0.00      15.99        3.64     0.69   0.986
  SC03                      15.23       0.00       0.00       0.00      15.10       0.00      15.10        2.72     0.25   0.992
  SC04                      16.22       0.00       0.00       0.00      15.61       0.00      15.61        1.08     0.12   0.963
  SC05                      12.87       0.00       0.00       0.00      12.64       0.00      12.64        1.97     0.22   0.982
  SC06                      14.88       0.00       0.00       0.00      14.13       0.00      14.13        4.60     0.38   0.950
  SC07                      16.22       0.00       0.00       0.00      15.62       0.00      15.62        0.74     0.08   0.963
  SC08                      15.23       0.00       0.00       0.00      14.90       0.00      14.90        4.17     0.27   0.978
  SC09                      14.88       0.00       0.00       0.00      14.46       0.00      14.46        1.00     0.11   0.972
  SC010                     12.87       0.00       0.00       0.00      12.56       0.00      12.56        1.48     0.15   0.976
  
  
  ******************
  Node Depth Summary
  ******************
  
  ---------------------------------------------------------------------------------
                                 Average  Maximum  Maximum  Time of Max    Reported
                                   Depth    Depth      HGL   Occurrence   Max Depth
  Node                 Type       Meters   Meters   Meters  days hr:min      Meters
  ---------------------------------------------------------------------------------
  J1                   JUNCTION     0.06     0.15    34.15     0  21:21        0.15
  J3                   JUNCTION     0.09     0.14    18.14     0  22:00        0.14
  CSO7                 JUNCTION     0.09     1.20    35.20     0  21:21        1.20
  J5                   JUNCTION     0.06     0.14    32.14     0  21:27        0.14
  CSO9                 JUNCTION     0.10     1.83    41.83     0  21:21        1.51
  J8                   JUNCTION     0.09     0.22    36.22     0  21:32        0.22
  CSO8                 JUNCTION     0.11     0.34    32.34     0  18:21        0.33
  J10                  JUNCTION     0.08     0.20    29.20     0  18:23        0.20
  J13                  JUNCTION     0.06     0.21    29.21     0  21:21        0.21
  J15                  JUNCTION     0.14     0.29    15.29     0  21:28        0.29
  J16                  JUNCTION     0.06     0.17    30.17     0  21:21        0.17
  CSO10                JUNCTION     0.10     0.33    30.33     0  21:26        0.33
  J12                  JUNCTION     0.36     1.02    27.02     0  18:40        1.02
  J4                   JUNCTION     0.11     1.44    34.44     0  21:26        0.75
  J6                   JUNCTION     0.05     0.07    25.07     0  22:00        0.07
  J2                   JUNCTION     0.06     0.08    25.08     0  22:32        0.08
  J19                  JUNCTION     0.12     0.17     8.17     0  21:29        0.17
  J9                   JUNCTION     0.08     0.11    29.11     0  14:38        0.11
  J14                  JUNCTION     0.10     0.15    20.15     0  18:39        0.15
  J17                  JUNCTION     0.05     0.08    20.08     0  19:04        0.08
  J7                   JUNCTION     0.07     0.20    39.20     0  21:32        0.20
  J11                  JUNCTION     0.08     0.21    31.21     0  22:18        0.21
  J18                  JUNCTION     0.05     0.13    29.13     0  21:28        0.13
  Out_to_WWTP          OUTFALL      0.12     0.17     6.17     0  23:30        0.17
  T5                   STORAGE      2.15     5.00    32.00     0  21:44        5.00
  T4                   STORAGE      2.44     5.00    32.00     0  18:31        5.00
  T6                   STORAGE      2.83     5.00    36.00     0  13:26        5.00
  T3                   STORAGE      2.48     5.00    27.00     0  18:38        5.00
  T2                   STORAGE      2.45     5.00    26.00     0  18:13        5.00
  T1                   STORAGE      2.49     5.00    15.00     0  18:40        5.00
  
  
  *******************
  Node Inflow Summary
  *******************
  
  -------------------------------------------------------------------------------------------------
                                  Maximum  Maximum                  Lateral       Total        Flow
                                  Lateral    Total  Time of Max      Inflow      Inflow     Balance
                                   Inflow   Inflow   Occurrence      Volume      Volume       Error
  Node                 Type           CMS      CMS  days hr:min    10^6 ltr    10^6 ltr     Percent
  -------------------------------------------------------------------------------------------------
  J1                   JUNCTION     0.229    0.229     0  21:21        3.06        3.06       0.018
  J3                   JUNCTION     0.000    0.191     0  22:00           0        8.61       0.438
  CSO7                 JUNCTION     0.084    0.084     0  21:21        1.31        1.31       0.035
  J5                   JUNCTION     0.117    0.183     0  21:26        1.33        2.63       0.102
  CSO9                 JUNCTION     0.112    0.112     0  21:26        1.38        1.38       0.019
  J8                   JUNCTION     0.393    0.487     0  21:31        6.43        7.81       0.135
  CSO8                 JUNCTION     0.269    0.269     0  18:21        4.62        4.62       0.012
  J10                  JUNCTION     0.254    0.454     0  18:21        3.47        8.08       0.040
  J13                  JUNCTION     0.697    0.697     0  21:21        4.55        4.55      -0.013
  J15                  JUNCTION     0.000    0.798     0  21:27           0        16.9       0.539
  J16                  JUNCTION     0.500    0.500     0  21:21        5.26        5.26       0.008
  CSO10                JUNCTION     0.148    0.148     0  21:26        1.75        1.75       0.032
  J12                  JUNCTION     0.000    0.503     0  18:23           0        12.2       7.129
  J4                   JUNCTION     0.000    0.081     0  21:21           0         1.3       0.190
  J6                   JUNCTION     0.000    0.028     0  19:30           0        1.23       0.340
  J2                   JUNCTION     0.000    0.039     0  21:44           0        1.88       0.301
  J19                  JUNCTION     0.000    0.271     0  18:40           0        13.6       0.093
  J9                   JUNCTION     0.000    0.075     0  13:26           0        4.13       0.413
  J14                  JUNCTION     0.000    0.124     0  18:38           0        5.52       0.133
  J17                  JUNCTION     0.000    0.033     0  18:13           0        1.31       0.482
  J7                   JUNCTION     0.000    0.112     0  21:26           0        1.38       0.239
  J11                  JUNCTION     0.000    0.267     0  18:21           0        4.62       0.208
  J18                  JUNCTION     0.000    0.142     0  21:26           0        1.75       0.131
  Out_to_WWTP          OUTFALL      0.000    0.271     0  21:30           0        13.6       0.000
  T5                   STORAGE      0.000    0.213     0  21:22           0        3.06      17.908
  T4                   STORAGE      0.000    0.177     0  21:27           0        2.62      15.852
  T6                   STORAGE      0.000    0.469     0  21:32           0         7.8      12.014
  T3                   STORAGE      0.000    0.524     0  18:43           0        11.4      13.746
  T2                   STORAGE      0.000    0.628     0  21:22           0        4.55      25.800
  T1                   STORAGE      0.000    0.757     0  21:28           0        16.8       5.144
  
  
  **********************
  Node Surcharge Summary
  **********************
  
  Surcharging occurs when water rises above the top of the highest conduit.
  ---------------------------------------------------------------------
                                               Max. Height   Min. Depth
                                   Hours       Above Crown    Below Rim
  Node                 Type      Surcharged         Meters       Meters
  ---------------------------------------------------------------------
  CSO7                 JUNCTION        0.31          0.945        0.000
  CSO9                 JUNCTION        0.34          1.515        0.167
  J4                   JUNCTION        0.31          1.145        0.555
  
  
  *********************
  Node Flooding Summary
  *********************
  
  Flooding refers to all water that overflows a node, whether it ponds or not.
  --------------------------------------------------------------------------
                                                             Total   Maximum
                                 Maximum   Time of Max       Flood    Ponded
                        Hours       Rate    Occurrence      Volume     Depth
  Node                 Flooded       CMS   days hr:min    10^6 ltr    Meters
  --------------------------------------------------------------------------
  CSO7                    0.10     0.018      0  21:21       0.002     0.000
  T5                      1.01     0.138      0  21:46       0.255     0.000
  T4                      2.74     0.149      0  21:27       0.542     0.000
  T6                      7.80     0.394      0  21:32       2.237     0.000
  T3                      3.76     0.401      0  18:43       1.891     0.000
  T2                      3.00     0.594      0  21:22       1.319     0.000
  T1                      2.54     0.487      0  21:28       1.685     0.000
  
  
  **********************
  Storage Volume Summary
  **********************
  
  --------------------------------------------------------------------------------------------------
                         Average     Avg  Evap Exfil       Maximum     Max    Time of Max    Maximum
                          Volume    Pcnt  Pcnt  Pcnt        Volume    Pcnt     Occurrence    Outflow
  Storage Unit           1000 m3    Full  Loss  Loss       1000 m3    Full    days hr:min        CMS
  --------------------------------------------------------------------------------------------------
  T5                       0.215      43     0     0         0.500     100       0  21:44      0.039
  T4                       0.244      49     0     0         0.500     100       0  18:31      0.028
  T6                       0.340      57     0     0         0.600     100       0  13:26      0.075
  T3                       1.288      50     0     0         2.600     100       0  18:38      0.124
  T2                       0.491      49     0     0         1.000     100       0  18:13      0.033
  T1                       0.348      50     0     0         0.700     100       0  18:40      0.271
  
  
  ***********************
  Outfall Loading Summary
  ***********************
  
  -----------------------------------------------------------
                         Flow       Avg       Max       Total
                         Freq      Flow      Flow      Volume
  Outfall Node           Pcnt       CMS       CMS    10^6 ltr
  -----------------------------------------------------------
  Out_to_WWTP           99.43     0.160     0.271      13.570
  -----------------------------------------------------------
  System                99.43     0.160     0.271      13.570
  
  
  ********************
  Link Flow Summary
  ********************
  
  -----------------------------------------------------------------------------
                                 Maximum  Time of Max   Maximum    Max/    Max/
                                  |Flow|   Occurrence   |Veloc|    Full    Full
  Link                 Type          CMS  days hr:min     m/sec    Flow   Depth
  -----------------------------------------------------------------------------
  C1                   CONDUIT     0.039     0  22:32      0.96    0.01    0.11
  C6                   CONDUIT     0.071     0  21:27      1.27    1.12    0.74
  C2                   CONDUIT     0.028     0  22:00      1.01    0.03    0.18
  C9                   CONDUIT     0.097     0  21:32      1.24    0.33    0.42
  C16                  CONDUIT     0.237     0  18:23      1.42    0.02    0.10
  C3                   CONDUIT     0.124     0  21:22      1.83    0.05    0.14
  C19                  CONDUIT     0.033     0  19:04      0.69    0.01    0.18
  C11                  CONDUIT     0.191     0  22:00      1.73    0.01    0.11
  C20                  CONDUIT     0.463     0  21:21      2.68    0.01    0.11
  C22                  CONDUIT     0.134     0  21:28      1.25    0.06    0.27
  C12                  CONDUIT     0.075     0  14:38      0.95    0.01    0.28
  C17                  CONDUIT     0.428     0  18:23      2.31    0.02    0.30
  C10                  CONDUIT     0.469     0  21:32      0.94    0.05    0.57
  C13                  CONDUIT     0.524     0  18:43      0.85    0.03    0.75
  C18                  CONDUIT     0.628     0  21:22      1.01    0.02    0.55
  C23                  CONDUIT     0.757     0  21:28      0.86    0.08    0.60
  C4                   CONDUIT     0.213     0  21:22      1.13    0.05    0.58
  C7                   CONDUIT     0.177     0  21:27      0.83    0.04    0.57
  C14                  CONDUIT     0.271     0  21:30      2.08    0.02    0.09
  C5                   CONDUIT     0.081     0  21:21      1.67    1.39    1.00
  C8                   CONDUIT     0.112     0  21:26      1.69    1.41    0.81
  C15                  CONDUIT     0.267     0  18:21      2.71    0.85    0.59
  C21                  CONDUIT     0.142     0  21:26      1.77    0.81    0.52
  V4                   ORIFICE     0.028     0  19:30                      0.35
  V5                   ORIFICE     0.039     0  21:44                      1.00
  V1                   ORIFICE     0.271     0  18:40                      1.00
  V6                   ORIFICE     0.075     0  13:26                      0.43
  V3                   ORIFICE     0.124     0  18:38                      0.65
  V2                   ORIFICE     0.033     0  18:13                      0.24
  
  
  ***************************
  Flow Classification Summary
  ***************************
  
  -------------------------------------------------------------------------------------
                      Adjusted    ---------- Fraction of Time in Flow Class ---------- 
                       /Actual         Up    Down  Sub   Sup   Up    Down  Norm  Inlet 
  Conduit               Length    Dry  Dry   Dry   Crit  Crit  Crit  Crit  Ltd   Ctrl  
  -------------------------------------------------------------------------------------
  C1                      1.00   0.00  0.00  0.00  0.50  0.50  0.00  0.00  0.96  0.00
  C6                      1.00   0.00  0.00  0.00  0.03  0.97  0.00  0.00  0.00  0.00
  C2                      1.00   0.00  0.00  0.00  0.68  0.32  0.00  0.00  0.97  0.00
  C9                      1.00   0.00  0.00  0.00  1.00  0.00  0.00  0.00  1.00  0.00
  C16                     1.00   0.00  0.25  0.00  0.14  0.61  0.00  0.00  0.10  0.00
  C3                      1.00   0.00  0.00  0.00  0.03  0.96  0.00  0.00  0.29  0.00
  C19                     1.00   0.00  0.00  0.00  1.00  0.00  0.00  0.00  1.00  0.00
  C11                     1.00   0.00  0.00  0.00  0.09  0.91  0.00  0.00  1.00  0.00
  C20                     1.00   0.00  0.00  0.00  0.58  0.42  0.00  0.00  0.99  0.00
  C22                     1.00   0.00  0.00  0.00  0.98  0.02  0.00  0.00  1.00  0.00
  C12                     1.00   0.00  0.00  0.00  0.78  0.22  0.00  0.00  1.00  0.00
  C17                     1.00   0.00  0.00  0.00  0.63  0.37  0.00  0.00  0.99  0.00
  C10                     1.00   0.00  0.00  0.00  0.83  0.17  0.00  0.00  0.98  0.00
  C13                     1.00   0.00  0.00  0.00  0.81  0.19  0.00  0.00  0.53  0.00
  C18                     1.00   0.00  0.00  0.00  0.94  0.06  0.00  0.00  0.98  0.00
  C23                     1.00   0.00  0.00  0.00  0.77  0.23  0.00  0.00  0.96  0.00
  C4                      1.00   0.00  0.00  0.00  0.82  0.18  0.00  0.00  0.98  0.00
  C7                      1.00   0.00  0.00  0.00  0.91  0.09  0.00  0.00  0.97  0.00
  C14                     1.00   0.00  0.00  0.00  0.00  1.00  0.00  0.00  0.26  0.00
  C5                      1.00   0.00  0.00  0.00  0.91  0.09  0.00  0.00  0.96  0.00
  C8                      1.00   0.00  0.00  0.00  0.17  0.83  0.00  0.00  0.00  0.00
  C15                     1.00   0.25  0.00  0.00  0.00  0.75  0.00  0.00  0.00  0.00
  C21                     1.00   0.00  0.00  0.00  0.00  1.00  0.00  0.00  0.00  0.00
  
  
  *************************
  Conduit Surcharge Summary
  *************************
  
  ----------------------------------------------------------------------------
                                                           Hours        Hours 
                         --------- Hours Full --------   Above Full   Capacity
  Conduit                Both Ends  Upstream  Dnstream   Normal Flow   Limited
  ----------------------------------------------------------------------------
  C6                          0.01      0.31      0.01      0.17         0.01
  C10                         0.01      0.01     14.45      0.01         0.01
  C13                         0.01      0.01     12.66      0.01         0.01
  C18                         0.01      0.01     11.84      0.01         0.01
  C23                         0.01      0.01     14.50      0.01         0.01
  C4                          0.01      0.01     14.85      0.01         0.01
  C7                          0.01      0.01     14.39      0.01         0.01
  C5                          0.27      0.31      0.45      0.33         0.24
  C8                          0.01      0.34      0.01      0.35         0.01
  

  Analysis begun on:  Tue Sep 21 13:38:26 2021
  Analysis ended on:  Tue Sep 21 13:38:26 2021
  Total elapsed time: < 1 sec