
  EPA STORM WATER MANAGEMENT MODEL - VERSION 5.1 (Build 5.3.0.dev0)
  --------------------------------------------------------------

  WARNING 09: time series interval greater than recording interval for Rain Gage RG1
  WARNING 09: time series interval greater than recording interval for Rain Gage RG2
  WARNING 09: time series interval greater than recording interval for Rain Gage RG3
  WARNING 09: time series interval greater than recording interval for Rain Gage RG4
  
  *********************************************************
  NOTE: The summary statistics displayed in this report are
  based on results found at every computational time step,  
  not just on results from each reporting time step.
  *********************************************************
  
  ****************
  Analysis Options
  ****************
  Flow Units ............... CMS
  Process Models:
    Rainfall/Runoff ........ YES
    RDII ................... NO
    Snowmelt ............... NO
    Groundwater ............ NO
    Flow Routing ........... YES
    Ponding Allowed ........ YES
    Water Quality .......... NO
  Infiltration Method ...... HORTON
  Flow Routing Method ...... DYNWAVE
  Surcharge Method ......... EXTRAN
  Starting Date ............ 08/28/2015 00:00:00
  Ending Date .............. 08/28/2015 23:50:00
  Antecedent Dry Days ...... 0.0
  Report Time Step ......... 00:01:00
  Wet Time Step ............ 00:01:00
  Dry Time Step ............ 00:01:00
  Routing Time Step ........ 5.00 sec
  Variable Time Step ....... YES
  Maximum Trials ........... 8
  Number of Threads ........ 1
  Head Tolerance ........... 0.001500 m
  
  
  **************************        Volume         Depth
  Runoff Quantity Continuity     hectare-m            mm
  **************************     ---------       -------
  Total Precipitation ......         5.052        28.035
  Evaporation Loss .........         0.000         0.000
  Infiltration Loss ........         0.000         0.000
  Surface Runoff ...........         5.039        27.962
  Final Storage ............         0.017         0.094
  Continuity Error (%) .....        -0.075
  
  
  **************************        Volume        Volume
  Flow Routing Continuity        hectare-m      10^6 ltr
  **************************     ---------     ---------
  Dry Weather Inflow .......         0.759         7.585
  Wet Weather Inflow .......         5.039        50.388
  Groundwater Inflow .......         0.000         0.000
  RDII Inflow ..............         0.000         0.000
  External Inflow ..........         0.000         0.000
  External Outflow .........         1.743        17.431
  Flooding Loss ............         3.209        32.088
  Evaporation Loss .........         0.000         0.000
  Exfiltration Loss ........         0.000         0.000
  Initial Stored Volume ....         0.000         0.000
  Final Stored Volume ......         0.703         7.035
  Continuity Error (%) .....         2.449
  
  
  *************************
  Highest Continuity Errors
  *************************
  Node T2 (11.86%)
  Node T3 (8.97%)
  Node T4 (6.33%)
  Node J12 (5.04%)
  Node T5 (4.61%)
  
  
  ***************************
  Time-Step Critical Elements
  ***************************
  None
  
  
  ********************************
  Highest Flow Instability Indexes
  ********************************
  Link C15 (2)
  Link C20 (2)
  Link C18 (1)
  Link C10 (1)
  Link C8 (1)
  
  
  *************************
  Routing Time Step Summary
  *************************
  Minimum Time Step           :     4.02 sec
  Average Time Step           :     5.00 sec
  Maximum Time Step           :     5.00 sec
  Percent in Steady State     :     0.00
  Average Iterations per Step :     2.50
  Percent Not Converging      :     0.83
  
  
  ***************************
  Subcatchment Runoff Summary
  ***************************
  
  ------------------------------------------------------------------------------------------------------------------------------
                            Total      Total      Total      Total     Imperv       Perv      Total       Total     Peak  Runoff
                           Precip      Runon       Evap      Infil     Runoff     Runoff     Runoff      Runoff   Runoff   Coeff
  Subcatchment                 mm         mm         mm         mm         mm         mm         mm    10^6 ltr      CMS
  ------------------------------------------------------------------------------------------------------------------------------
  SC01                      24.01       0.00       0.00       0.00      23.97       0.00      23.97        7.91     1.23   0.998
  SC02                      22.67       0.00       0.00       0.00      22.61       0.00      22.61        5.14     0.89   0.997
  SC03                      19.88       0.00       0.00       0.00      19.84       0.00      19.84        3.57     0.50   0.998
  SC04                      22.67       0.00       0.00       0.00      22.54       0.00      22.54        1.56     0.18   0.994
  SC05                      24.01       0.00       0.00       0.00      23.96       0.00      23.96        3.74     0.55   0.998
  SC06                      48.38       0.00       0.00       0.00      48.25       0.00      48.25       15.70     2.04   0.997
  SC07                      22.67       0.00       0.00       0.00      22.54       0.00      22.54        1.07     0.13   0.994
  SC08                      19.88       0.00       0.00       0.00      19.80       0.00      19.80        5.54     0.61   0.996
  SC09                      48.38       0.00       0.00       0.00      48.32       0.00      48.32        3.33     0.49   0.999
  SC010                     24.01       0.00       0.00       0.00      23.95       0.00      23.95        2.81     0.37   0.997
  
  
  ******************
  Node Depth Summary
  ******************
  
  ---------------------------------------------------------------------------------
                                 Average  Maximum  Maximum  Time of Max    Reported
                                   Depth    Depth      HGL   Occurrence   Max Depth
  Node                 Type       Meters   Meters   Meters  days hr:min      Meters
  ---------------------------------------------------------------------------------
  J1                   JUNCTION     0.07     0.24    34.24     0  11:56        0.24
  J3                   JUNCTION     0.10     0.11    18.11     0  13:45        0.11
  CSO7                 JUNCTION     0.12     1.20    35.20     0  12:06        1.20
  J5                   JUNCTION     0.06     0.17    32.17     0  12:17        0.17
  CSO9                 JUNCTION     0.30     2.00    42.00     0  06:50        2.00
  J8                   JUNCTION     0.14     0.47    36.47     0  07:26        0.47
  CSO8                 JUNCTION     0.16     2.00    34.00     0  07:05        2.00
  J10                  JUNCTION     0.09     0.29    29.29     0  07:17        0.28
  J13                  JUNCTION     0.06     0.24    29.24     0  12:16        0.24
  J15                  JUNCTION     0.17     0.39    15.39     0  11:58        0.39
  J16                  JUNCTION     0.07     0.26    30.26     0  11:56        0.26
  CSO10                JUNCTION     0.13     1.00    31.00     0  11:50        1.00
  J12                  JUNCTION     0.74     1.04    27.04     0  07:24        1.04
  J4                   JUNCTION     0.13     1.40    34.40     0  12:12        1.33
  J6                   JUNCTION     0.06     0.07    25.07     0  13:00        0.07
  J2                   JUNCTION     0.07     0.08    25.08     0  09:22        0.08
  J19                  JUNCTION     0.14     0.17     8.17     0  11:53        0.17
  J9                   JUNCTION     0.10     0.11    29.11     0  01:57        0.11
  J14                  JUNCTION     0.09     0.10    20.10     0  23:49        0.10
  J17                  JUNCTION     0.06     0.08    20.08     0  12:48        0.08
  J7                   JUNCTION     0.10     0.23    39.23     0  08:07        0.23
  J11                  JUNCTION     0.09     0.30    31.30     0  07:28        0.30
  J18                  JUNCTION     0.06     0.16    29.16     0  12:08        0.16
  Out_to_WWTP          OUTFALL      0.14     0.17     6.17     0  16:19        0.17
  T5                   STORAGE      3.37     5.00    32.00     0  08:38        5.00
  T4                   STORAGE      3.29     5.00    32.00     0  12:03        5.00
  T6                   STORAGE      4.34     5.00    36.00     0  01:52        5.00
  T3                   STORAGE      3.98     5.00    27.00     0  07:20        5.00
  T2                   STORAGE      3.45     5.00    26.00     0  11:50        5.00
  T1                   STORAGE      3.29     5.00    15.00     0  07:31        5.00
  
  
  *******************
  Node Inflow Summary
  *******************
  
  -------------------------------------------------------------------------------------------------
                                  Maximum  Maximum                  Lateral       Total        Flow
                                  Lateral    Total  Time of Max      Inflow      Inflow     Balance
                                   Inflow   Inflow   Occurrence      Volume      Volume       Error
  Node                 Type           CMS      CMS  days hr:min    10^6 ltr    10^6 ltr     Percent
  -------------------------------------------------------------------------------------------------
  J1                   JUNCTION     0.578    0.578     0  11:56        4.83        4.83      -0.027
  J3                   JUNCTION     0.000    0.127     0  12:48           0         8.7       0.293
  CSO7                 JUNCTION     0.139    0.139     0  12:16        1.64        1.64       0.010
  J5                   JUNCTION     0.188    0.259     0  12:16         1.8        3.38      -0.011
  CSO9                 JUNCTION     0.500    0.500     0  07:26        3.72        3.72      -0.034
  J8                   JUNCTION     2.071    2.198     0  07:26        17.5        20.6      -0.026
  CSO8                 JUNCTION     0.625    0.625     0  07:16        5.99        5.99      -0.006
  J10                  JUNCTION     0.514    0.965     0  07:16        4.32        10.3      -0.085
  J13                  JUNCTION     0.914    0.914     0  12:16        6.06        6.06      -0.083
  J15                  JUNCTION     0.000    1.517     0  11:56           0        22.9       0.266
  J16                  JUNCTION     1.251    1.251     0  11:56        8.99        8.99      -0.035
  CSO10                JUNCTION     0.374    0.374     0  11:56        3.08        3.08      -0.023
  J12                  JUNCTION     0.000    0.961     0  07:17           0        16.1       5.305
  J4                   JUNCTION     0.000    0.081     0  12:10           0        1.58       0.057
  J6                   JUNCTION     0.000    0.028     0  12:03           0        1.81       0.190
  J2                   JUNCTION     0.000    0.039     0  08:38           0        2.57       0.164
  J19                  JUNCTION     0.000    0.271     0  07:31           0        17.4       0.049
  J9                   JUNCTION     0.000    0.075     0  01:52           0        5.88       0.160
  J14                  JUNCTION     0.000    0.060     0  07:20           0        4.33       0.100
  J17                  JUNCTION     0.000    0.033     0  11:50           0         2.2       0.258
  J7                   JUNCTION     0.000    0.127     0  08:07           0        3.08       0.024
  J11                  JUNCTION     0.000    0.486     0  07:28           0        5.94       0.016
  J18                  JUNCTION     0.000    0.202     0  12:08           0        3.01      -0.010
  Out_to_WWTP          OUTFALL      0.000    0.271     0  11:54           0        17.4       0.000
  T5                   STORAGE      0.000    0.538     0  11:56           0        4.83       4.836
  T4                   STORAGE      0.000    0.245     0  12:17           0        3.38       6.755
  T6                   STORAGE      0.000    2.065     0  07:26           0        20.6       1.833
  T3                   STORAGE      0.000    1.165     0  07:27           0        15.3       9.853
  T2                   STORAGE      0.000    0.843     0  12:16           0        6.06      13.459
  T1                   STORAGE      0.000    1.336     0  11:58           0        22.8       1.382
  
  
  **********************
  Node Surcharge Summary
  **********************
  
  Surcharging occurs when water rises above the top of the highest conduit.
  ---------------------------------------------------------------------
                                               Max. Height   Min. Depth
                                   Hours       Above Crown    Below Rim
  Node                 Type      Surcharged         Meters       Meters
  ---------------------------------------------------------------------
  CSO7                 JUNCTION        1.09          0.945        0.000
  CSO9                 JUNCTION        4.23          1.682        0.000
  CSO8                 JUNCTION        0.90          1.547        0.000
  CSO10                JUNCTION        0.38          0.560        0.000
  J4                   JUNCTION        1.07          1.098        0.602
  
  
  *********************
  Node Flooding Summary
  *********************
  
  Flooding refers to all water that overflows a node, whether it ponds or not.
  --------------------------------------------------------------------------
                                                             Total   Maximum
                                 Maximum   Time of Max       Flood    Ponded
                        Hours       Rate    Occurrence      Volume     Depth
  Node                 Flooded       CMS   days hr:min    10^6 ltr    Meters
  --------------------------------------------------------------------------
  CSO7                    0.63     0.067      0  12:16       0.061     0.000
  CSO9                    1.40     0.372      0  07:26       0.635     0.000
  CSO8                    0.29     0.141      0  07:16       0.051     0.000
  CSO10                   0.29     0.172      0  11:56       0.077     0.000
  T5                      6.03     0.499      0  11:56       1.824     0.000
  T4                      4.27     0.217      0  12:17       1.073     0.000
  T6                     14.14     1.989      0  07:27      14.123     0.000
  T3                     15.24     1.105      0  07:27       7.030     0.000
  T2                      4.47     0.810      0  12:16       2.395     0.000
  T1                      6.57     1.066      0  11:58       4.818     0.000
  
  
  **********************
  Storage Volume Summary
  **********************
  
  --------------------------------------------------------------------------------------------------
                         Average     Avg  Evap Exfil       Maximum     Max    Time of Max    Maximum
                          Volume    Pcnt  Pcnt  Pcnt        Volume    Pcnt     Occurrence    Outflow
  Storage Unit           1000 m3    Full  Loss  Loss       1000 m3    Full    days hr:min        CMS
  --------------------------------------------------------------------------------------------------
  T5                       0.337      67     0     0         0.500     100       0  08:38      0.039
  T4                       0.329      66     0     0         0.500     100       0  12:03      0.028
  T6                       0.521      87     0     0         0.600     100       0  01:52      0.075
  T3                       2.069      80     0     0         2.600     100       0  07:20      0.060
  T2                       0.690      69     0     0         1.000     100       0  11:50      0.033
  T1                       0.460      66     0     0         0.700     100       0  07:31      0.271
  
  
  ***********************
  Outfall Loading Summary
  ***********************
  
  -----------------------------------------------------------
                         Flow       Avg       Max       Total
                         Freq      Flow      Flow      Volume
  Outfall Node           Pcnt       CMS       CMS    10^6 ltr
  -----------------------------------------------------------
  Out_to_WWTP           99.43     0.204     0.271      17.431
  -----------------------------------------------------------
  System                99.43     0.204     0.271      17.431
  
  
  ********************
  Link Flow Summary
  ********************
  
  -----------------------------------------------------------------------------
                                 Maximum  Time of Max   Maximum    Max/    Max/
                                  |Flow|   Occurrence   |Veloc|    Full    Full
  Link                 Type          CMS  days hr:min     m/sec    Flow   Depth
  -----------------------------------------------------------------------------
  C1                   CONDUIT     0.039     0  09:22      1.03    0.01    0.10
  C6                   CONDUIT     0.072     0  12:17      1.28    1.14    0.78
  C2                   CONDUIT     0.028     0  12:48      1.00    0.03    0.16
  C9                   CONDUIT     0.127     0  08:07      1.28    0.43    0.70
  C16                  CONDUIT     0.484     0  07:23      1.77    0.05    0.14
  C3                   CONDUIT     0.060     0  07:40      1.37    0.02    0.11
  C19                  CONDUIT     0.033     0  12:48      0.70    0.01    0.23
  C11                  CONDUIT     0.127     0  13:13      1.46    0.01    0.13
  C20                  CONDUIT     1.156     0  11:56      4.15    0.04    0.16
  C22                  CONDUIT     0.202     0  12:08      1.48    0.09    0.35
  C12                  CONDUIT     0.076     0  02:04      1.14    0.01    0.29
  C17                  CONDUIT     0.886     0  07:17      2.29    0.04    0.33
  C10                  CONDUIT     2.065     0  07:26      1.68    0.21    0.66
  C13                  CONDUIT     1.165     0  07:27      1.24    0.07    0.76
  C18                  CONDUIT     0.843     0  12:16      1.01    0.03    0.56
  C23                  CONDUIT     1.336     0  11:58      1.14    0.15    0.63
  C4                   CONDUIT     0.538     0  11:56      1.13    0.13    0.62
  C7                   CONDUIT     0.245     0  12:17      0.82    0.06    0.58
  C14                  CONDUIT     0.271     0  11:54      2.08    0.02    0.09
  C5                   CONDUIT     0.081     0  12:10      1.61    1.39    1.00
  C8                   CONDUIT     0.127     0  08:07      1.82    1.60    0.86
  C15                  CONDUIT     0.486     0  07:28      3.48    1.55    0.83
  C21                  CONDUIT     0.202     0  12:08      1.87    1.16    0.69
  V4                   ORIFICE     0.028     0  12:03                      0.35
  V5                   ORIFICE     0.039     0  08:38                      1.00
  V1                   ORIFICE     0.271     0  07:31                      1.00
  V6                   ORIFICE     0.075     0  01:52                      0.43
  V3                   ORIFICE     0.060     0  07:20                      0.55
  V2                   ORIFICE     0.033     0  11:50                      0.24
  
  
  ***************************
  Flow Classification Summary
  ***************************
  
  -------------------------------------------------------------------------------------
                      Adjusted    ---------- Fraction of Time in Flow Class ---------- 
                       /Actual         Up    Down  Sub   Sup   Up    Down  Norm  Inlet 
  Conduit               Length    Dry  Dry   Dry   Crit  Crit  Crit  Crit  Ltd   Ctrl  
  -------------------------------------------------------------------------------------
  C1                      1.00   0.00  0.00  0.00  0.06  0.94  0.00  0.00  0.96  0.00
  C6                      1.00   0.00  0.00  0.00  0.06  0.94  0.00  0.00  0.00  0.00
  C2                      1.00   0.00  0.00  0.00  0.12  0.87  0.00  0.00  0.98  0.00
  C9                      1.00   0.00  0.00  0.00  1.00  0.00  0.00  0.00  1.00  0.00
  C16                     1.00   0.00  0.01  0.00  0.33  0.65  0.00  0.00  0.32  0.00
  C3                      1.00   0.00  0.00  0.00  0.03  0.97  0.00  0.00  0.86  0.00
  C19                     1.00   0.00  0.00  0.00  1.00  0.00  0.00  0.00  1.00  0.00
  C11                     1.00   0.00  0.00  0.00  0.38  0.61  0.00  0.00  1.00  0.00
  C20                     1.00   0.00  0.00  0.00  0.45  0.55  0.00  0.00  0.99  0.00
  C22                     1.00   0.00  0.00  0.00  0.87  0.13  0.00  0.00  1.00  0.00
  C12                     1.00   0.00  0.00  0.00  0.84  0.16  0.00  0.00  0.93  0.00
  C17                     1.00   0.00  0.00  0.00  0.78  0.22  0.00  0.00  0.99  0.00
  C10                     1.00   0.00  0.00  0.00  0.97  0.03  0.00  0.00  0.97  0.00
  C13                     1.00   0.00  0.00  0.00  0.93  0.07  0.00  0.00  0.23  0.00
  C18                     1.00   0.00  0.00  0.00  0.92  0.08  0.00  0.00  0.98  0.00
  C23                     1.00   0.00  0.00  0.00  0.91  0.09  0.00  0.00  0.96  0.00
  C4                      1.00   0.00  0.00  0.00  0.92  0.08  0.00  0.00  0.98  0.00
  C7                      1.00   0.00  0.00  0.00  0.92  0.08  0.00  0.00  0.97  0.00
  C14                     1.00   0.00  0.00  0.00  0.00  1.00  0.00  0.00  0.38  0.00
  C5                      1.00   0.00  0.00  0.00  0.88  0.12  0.00  0.00  0.94  0.00
  C8                      1.00   0.00  0.00  0.00  0.30  0.70  0.00  0.00  0.00  0.00
  C15                     1.00   0.01  0.00  0.00  0.00  0.99  0.00  0.00  0.00  0.00
  C21                     1.00   0.00  0.00  0.00  0.00  1.00  0.00  0.00  0.00  0.00
  
  
  *************************
  Conduit Surcharge Summary
  *************************
  
  ----------------------------------------------------------------------------
                                                           Hours        Hours 
                         --------- Hours Full --------   Above Full   Capacity
  Conduit                Both Ends  Upstream  Dnstream   Normal Flow   Limited
  ----------------------------------------------------------------------------
  C6                          0.01      1.07      0.01      0.73         0.01
  C10                         0.01      0.01     22.59      0.01         0.01
  C13                         0.01      0.01     19.29      0.01         0.01
  C18                         0.01      0.01     18.55      0.01         0.01
  C23                         0.01      0.01     19.69      0.01         0.01
  C4                          0.01      0.01     19.75      0.01         0.01
  C7                          0.01      0.01     19.41      0.01         0.01
  C5                          1.03      1.09      1.21      1.05         0.94
  C8                          0.01      4.23      0.01      4.13         0.01
  C15                         0.01      0.90      0.01      0.97         0.01
  C21                         0.01      0.38      0.01      0.37         0.01
  

  Analysis begun on:  Mon Sep 20 12:52:07 2021
  Analysis ended on:  Mon Sep 20 12:52:08 2021
  Total elapsed time: 00:00:01