
  EPA STORM WATER MANAGEMENT MODEL - VERSION 5.1 (Build 5.3.0.dev0)
  --------------------------------------------------------------

  WARNING 09: time series interval greater than recording interval for Rain Gage RG1
  WARNING 09: time series interval greater than recording interval for Rain Gage RG2
  WARNING 09: time series interval greater than recording interval for Rain Gage RG3
  WARNING 09: time series interval greater than recording interval for Rain Gage RG4
  
  *********************************************************
  NOTE: The summary statistics displayed in this report are
  based on results found at every computational time step,  
  not just on results from each reporting time step.
  *********************************************************
  
  ****************
  Analysis Options
  ****************
  Flow Units ............... CMS
  Process Models:
    Rainfall/Runoff ........ YES
    RDII ................... NO
    Snowmelt ............... NO
    Groundwater ............ NO
    Flow Routing ........... YES
    Ponding Allowed ........ YES
    Water Quality .......... NO
  Infiltration Method ...... HORTON
  Flow Routing Method ...... DYNWAVE
  Surcharge Method ......... EXTRAN
  Starting Date ............ 08/28/2015 00:00:00
  Ending Date .............. 08/28/2015 23:50:00
  Antecedent Dry Days ...... 0.0
  Report Time Step ......... 00:01:00
  Wet Time Step ............ 00:01:00
  Dry Time Step ............ 00:01:00
  Routing Time Step ........ 5.00 sec
  Variable Time Step ....... YES
  Maximum Trials ........... 8
  Number of Threads ........ 1
  Head Tolerance ........... 0.001500 m
  
  
  **************************        Volume         Depth
  Runoff Quantity Continuity     hectare-m            mm
  **************************     ---------       -------
  Total Precipitation ......         3.625        20.114
  Evaporation Loss .........         0.000         0.000
  Infiltration Loss ........         0.000         0.000
  Surface Runoff ...........         3.615        20.059
  Final Storage ............         0.017         0.096
  Continuity Error (%) .....        -0.205
  
  
  **************************        Volume        Volume
  Flow Routing Continuity        hectare-m      10^6 ltr
  **************************     ---------     ---------
  Dry Weather Inflow .......         0.759         7.586
  Wet Weather Inflow .......         3.615        36.147
  Groundwater Inflow .......         0.000         0.000
  RDII Inflow ..............         0.000         0.000
  External Inflow ..........         0.000         0.000
  External Outflow .........         1.437        14.370
  Flooding Loss ............         2.133        21.329
  Evaporation Loss .........         0.000         0.000
  Exfiltration Loss ........         0.000         0.000
  Initial Stored Volume ....         0.000         0.000
  Final Stored Volume ......         0.683         6.828
  Continuity Error (%) .....         2.760
  
  
  *************************
  Highest Continuity Errors
  *************************
  Node T2 (17.04%)
  Node T3 (11.37%)
  Node T4 (8.19%)
  Node J12 (6.11%)
  Node T5 (4.42%)
  
  
  ***************************
  Time-Step Critical Elements
  ***************************
  None
  
  
  ********************************
  Highest Flow Instability Indexes
  ********************************
  Link C15 (1)
  
  
  *************************
  Routing Time Step Summary
  *************************
  Minimum Time Step           :     3.50 sec
  Average Time Step           :     5.00 sec
  Maximum Time Step           :     5.00 sec
  Percent in Steady State     :     0.00
  Average Iterations per Step :     2.14
  Percent Not Converging      :     0.20
  
  
  ***************************
  Subcatchment Runoff Summary
  ***************************
  
  ------------------------------------------------------------------------------------------------------------------------------
                            Total      Total      Total      Total     Imperv       Perv      Total       Total     Peak  Runoff
                           Precip      Runon       Evap      Infil     Runoff     Runoff     Runoff      Runoff   Runoff   Coeff
  Subcatchment                 mm         mm         mm         mm         mm         mm         mm    10^6 ltr      CMS
  ------------------------------------------------------------------------------------------------------------------------------
  SC01                      19.88       0.00       0.00       0.00      19.88       0.00      19.88        6.56     2.61   1.000
  SC02                      14.23       0.00       0.00       0.00      14.17       0.00      14.17        3.22     0.94   0.996
  SC03                      16.97       0.00       0.00       0.00      16.95       0.00      16.95        3.05     0.98   0.999
  SC04                      14.23       0.00       0.00       0.00      14.10       0.00      14.10        0.97     0.20   0.991
  SC05                      19.88       0.00       0.00       0.00      19.87       0.00      19.87        3.10     1.15   0.999
  SC06                      29.27       0.00       0.00       0.00      29.15       0.00      29.15        9.49     2.13   0.996
  SC07                      14.23       0.00       0.00       0.00      14.10       0.00      14.10        0.67     0.14   0.991
  SC08                      16.97       0.00       0.00       0.00      16.90       0.00      16.90        4.73     1.11   0.996
  SC09                      29.27       0.00       0.00       0.00      29.23       0.00      29.23        2.02     0.60   0.999
  SC010                     19.88       0.00       0.00       0.00      19.84       0.00      19.84        2.33     0.73   0.998
  
  
  ******************
  Node Depth Summary
  ******************
  
  ---------------------------------------------------------------------------------
                                 Average  Maximum  Maximum  Time of Max    Reported
                                   Depth    Depth      HGL   Occurrence   Max Depth
  Node                 Type       Meters   Meters   Meters  days hr:min      Meters
  ---------------------------------------------------------------------------------
  J1                   JUNCTION     0.06     0.35    34.35     0  09:51        0.34
  J3                   JUNCTION     0.09     0.11    18.11     0  11:35        0.11
  CSO7                 JUNCTION     0.11     1.20    35.20     0  09:41        1.20
  J5                   JUNCTION     0.05     0.17    32.17     0  09:57        0.17
  CSO9                 JUNCTION     0.20     2.00    42.00     0  06:50        2.00
  J8                   JUNCTION     0.10     0.48    36.48     0  09:51        0.48
  CSO8                 JUNCTION     0.15     2.00    34.00     0  09:21        2.00
  J10                  JUNCTION     0.08     0.34    29.34     0  09:42        0.34
  J13                  JUNCTION     0.05     0.25    29.25     0  09:51        0.25
  J15                  JUNCTION     0.14     0.48    15.48     0  09:54        0.48
  J16                  JUNCTION     0.05     0.38    30.38     0  09:51        0.37
  CSO10                JUNCTION     0.12     1.00    31.00     0  06:56        1.00
  J12                  JUNCTION     0.63     1.01    27.01     0  10:04        1.01
  J4                   JUNCTION     0.11     1.17    34.17     0  09:45        0.75
  J6                   JUNCTION     0.05     0.07    25.07     0  11:05        0.07
  J2                   JUNCTION     0.06     0.08    25.08     0  09:46        0.08
  J19                  JUNCTION     0.13     0.17     8.17     0  07:26        0.17
  J9                   JUNCTION     0.08     0.11    29.11     0  08:31        0.11
  J14                  JUNCTION     0.09     0.11    20.11     0  07:40        0.11
  J17                  JUNCTION     0.06     0.08    20.08     0  11:10        0.08
  J7                   JUNCTION     0.07     0.23    39.23     0  10:19        0.23
  J11                  JUNCTION     0.07     0.30    31.30     0  10:06        0.30
  J18                  JUNCTION     0.04     0.16    29.16     0  10:23        0.16
  Out_to_WWTP          OUTFALL      0.13     0.17     6.17     0  13:32        0.17
  T5                   STORAGE      2.83     5.00    32.00     0  09:00        5.00
  T4                   STORAGE      2.72     5.00    32.00     0  10:17        5.00
  T6                   STORAGE      2.88     5.00    36.00     0  07:07        5.00
  T3                   STORAGE      3.21     5.00    27.00     0  10:00        5.00
  T2                   STORAGE      2.90     5.00    26.00     0  10:10        5.00
  T1                   STORAGE      2.60     5.00    15.00     0  07:25        5.00
  
  
  *******************
  Node Inflow Summary
  *******************
  
  -------------------------------------------------------------------------------------------------
                                  Maximum  Maximum                  Lateral       Total        Flow
                                  Lateral    Total  Time of Max      Inflow      Inflow     Balance
                                   Inflow   Inflow   Occurrence      Volume      Volume       Error
  Node                 Type           CMS      CMS  days hr:min    10^6 ltr    10^6 ltr     Percent
  -------------------------------------------------------------------------------------------------
  J1                   JUNCTION     1.170    1.170     0  09:51        4.19        4.19      -0.049
  J3                   JUNCTION     0.000    0.127     0  11:05           0        7.48       0.337
  CSO7                 JUNCTION     0.145    0.145     0  09:56        1.24        1.24       0.013
  J5                   JUNCTION     0.201    0.273     0  09:56        1.22        2.38      -0.001
  CSO9                 JUNCTION     0.608    0.608     0  07:01         2.4         2.4      -0.026
  J8                   JUNCTION     2.165    2.291     0  09:51        11.3          13      -0.038
  CSO8                 JUNCTION     1.123    1.123     0  09:46        5.18        5.18      -0.008
  J10                  JUNCTION     0.992    1.479     0  09:41         3.8        8.55      -0.130
  J13                  JUNCTION     0.958    0.958     0  09:51        4.13        4.13      -0.124
  J15                  JUNCTION     0.000    2.792     0  09:51           0          19       0.315
  J16                  JUNCTION     2.627    2.627     0  09:51        7.64        7.64      -0.097
  CSO10                JUNCTION     0.731    0.731     0  09:51         2.6         2.6      -0.056
  J12                  JUNCTION     0.000    1.346     0  09:42           0        12.8       6.506
  J4                   JUNCTION     0.000    0.080     0  09:41           0        1.15       0.065
  J6                   JUNCTION     0.000    0.028     0  10:17           0         1.5       0.228
  J2                   JUNCTION     0.000    0.039     0  09:00           0        2.21       0.177
  J19                  JUNCTION     0.000    0.271     0  07:25           0        14.4       0.058
  J9                   JUNCTION     0.000    0.075     0  07:08           0        4.28       0.200
  J14                  JUNCTION     0.000    0.060     0  07:40           0        3.79       0.115
  J17                  JUNCTION     0.000    0.033     0  10:10           0        1.87       0.321
  J7                   JUNCTION     0.000    0.127     0  10:19           0        1.68       0.075
  J11                  JUNCTION     0.000    0.486     0  10:07           0        4.75       0.024
  J18                  JUNCTION     0.000    0.202     0  10:23           0        2.05      -0.022
  Out_to_WWTP          OUTFALL      0.000    0.271     0  07:27           0        14.4       0.000
  T5                   STORAGE      0.000    1.063     0  09:51           0         4.2       4.629
  T4                   STORAGE      0.000    0.261     0  09:57           0        2.38       8.918
  T6                   STORAGE      0.000    2.144     0  09:52           0          13       2.020
  T3                   STORAGE      0.000    1.043     0  09:42           0        12.1      12.832
  T2                   STORAGE      0.000    0.867     0  09:51           0        4.14      20.540
  T1                   STORAGE      0.000    2.021     0  09:54           0          19       1.554
  
  
  **********************
  Node Surcharge Summary
  **********************
  
  Surcharging occurs when water rises above the top of the highest conduit.
  ---------------------------------------------------------------------
                                               Max. Height   Min. Depth
                                   Hours       Above Crown    Below Rim
  Node                 Type      Surcharged         Meters       Meters
  ---------------------------------------------------------------------
  CSO7                 JUNCTION        0.88          0.945        0.000
  CSO9                 JUNCTION        1.80          1.682        0.000
  CSO8                 JUNCTION        0.97          1.547        0.000
  CSO10                JUNCTION        1.10          0.560        0.000
  J4                   JUNCTION        0.85          0.873        0.827
  
  
  *********************
  Node Flooding Summary
  *********************
  
  Flooding refers to all water that overflows a node, whether it ponds or not.
  --------------------------------------------------------------------------
                                                             Total   Maximum
                                 Maximum   Time of Max       Flood    Ponded
                        Hours       Rate    Occurrence      Volume     Depth
  Node                 Flooded       CMS   days hr:min    10^6 ltr    Meters
  --------------------------------------------------------------------------
  CSO7                    0.69     0.073      0  09:56       0.081     0.000
  CSO9                    1.33     0.481      0  07:01       0.715     0.000
  CSO8                    0.60     0.636      0  09:46       0.426     0.000
  CSO10                   0.94     0.529      0  09:51       0.556     0.000
  T5                      4.57     1.023      0  09:51       1.623     0.000
  T4                      3.73     0.175      0  10:17       0.422     0.000
  T6                      6.91     2.068      0  09:52       8.294     0.000
  T3                     11.55     0.848      0  10:07       4.317     0.000
  T2                      3.80     0.468      0  10:11       0.830     0.000
  T1                      4.16     1.751      0  09:54       4.063     0.000
  
  
  **********************
  Storage Volume Summary
  **********************
  
  --------------------------------------------------------------------------------------------------
                         Average     Avg  Evap Exfil       Maximum     Max    Time of Max    Maximum
                          Volume    Pcnt  Pcnt  Pcnt        Volume    Pcnt     Occurrence    Outflow
  Storage Unit           1000 m3    Full  Loss  Loss       1000 m3    Full    days hr:min        CMS
  --------------------------------------------------------------------------------------------------
  T5                       0.283      57     0     0         0.500     100       0  09:00      0.039
  T4                       0.272      54     0     0         0.500     100       0  10:17      0.028
  T6                       0.346      58     0     0         0.600     100       0  07:07      0.075
  T3                       1.670      64     0     0         2.600     100       0  10:00      0.087
  T2                       0.579      58     0     0         1.000     100       0  10:10      0.033
  T1                       0.364      52     0     0         0.700     100       0  07:25      0.271
  
  
  ***********************
  Outfall Loading Summary
  ***********************
  
  -----------------------------------------------------------
                         Flow       Avg       Max       Total
                         Freq      Flow      Flow      Volume
  Outfall Node           Pcnt       CMS       CMS    10^6 ltr
  -----------------------------------------------------------
  Out_to_WWTP           99.43     0.168     0.271      14.370
  -----------------------------------------------------------
  System                99.43     0.168     0.271      14.370
  
  
  ********************
  Link Flow Summary
  ********************
  
  -----------------------------------------------------------------------------
                                 Maximum  Time of Max   Maximum    Max/    Max/
                                  |Flow|   Occurrence   |Veloc|    Full    Full
  Link                 Type          CMS  days hr:min     m/sec    Flow   Depth
  -----------------------------------------------------------------------------
  C1                   CONDUIT     0.039     0  09:43      1.16    0.01    0.10
  C6                   CONDUIT     0.072     0  09:56      1.29    1.15    0.79
  C2                   CONDUIT     0.028     0  11:05      1.00    0.03    0.16
  C9                   CONDUIT     0.127     0  10:19      1.22    0.43    0.71
  C16                  CONDUIT     0.488     0  09:41      1.79    0.05    0.16
  C3                   CONDUIT     0.060     0  10:20      1.40    0.02    0.11
  C19                  CONDUIT     0.033     0  11:10      0.71    0.01    0.27
  C11                  CONDUIT     0.127     0  11:31      1.44    0.01    0.15
  C20                  CONDUIT     2.448     0  09:51      5.71    0.08    0.20
  C22                  CONDUIT     0.202     0  10:23      1.63    0.09    0.40
  C12                  CONDUIT     0.075     0  08:31      0.76    0.01    0.28
  C17                  CONDUIT     1.271     0  09:42      3.54    0.06    0.32
  C10                  CONDUIT     2.144     0  09:52      1.91    0.22    0.66
  C13                  CONDUIT     1.043     0  09:42      1.20    0.06    0.75
  C18                  CONDUIT     0.867     0  09:51      1.01    0.03    0.56
  C23                  CONDUIT     2.021     0  09:54      2.13    0.22    0.66
  C4                   CONDUIT     1.063     0  09:51      2.19    0.26    0.67
  C7                   CONDUIT     0.261     0  09:57      0.82    0.06    0.59
  C14                  CONDUIT     0.271     0  07:27      2.08    0.02    0.09
  C5                   CONDUIT     0.080     0  09:41      1.59    1.37    1.00
  C8                   CONDUIT     0.127     0  10:19      2.11    1.60    0.86
  C15                  CONDUIT     0.486     0  10:07      3.50    1.55    0.83
  C21                  CONDUIT     0.202     0  10:23      2.04    1.16    0.69
  V4                   ORIFICE     0.028     0  10:17                      0.35
  V5                   ORIFICE     0.039     0  09:00                      1.00
  V1                   ORIFICE     0.271     0  07:25                      1.00
  V6                   ORIFICE     0.075     0  07:08                      0.43
  V3                   ORIFICE     0.060     0  07:40                      0.65
  V2                   ORIFICE     0.033     0  10:10                      0.24
  
  
  ***************************
  Flow Classification Summary
  ***************************
  
  -------------------------------------------------------------------------------------
                      Adjusted    ---------- Fraction of Time in Flow Class ---------- 
                       /Actual         Up    Down  Sub   Sup   Up    Down  Norm  Inlet 
  Conduit               Length    Dry  Dry   Dry   Crit  Crit  Crit  Crit  Ltd   Ctrl  
  -------------------------------------------------------------------------------------
  C1                      1.00   0.00  0.00  0.00  0.17  0.82  0.00  0.00  0.96  0.00
  C6                      1.00   0.00  0.00  0.00  0.05  0.95  0.00  0.00  0.00  0.00
  C2                      1.00   0.00  0.00  0.00  0.29  0.71  0.00  0.00  0.98  0.00
  C9                      1.00   0.00  0.00  0.00  1.00  0.00  0.00  0.00  1.00  0.00
  C16                     1.00   0.00  0.04  0.00  0.56  0.40  0.00  0.00  0.48  0.00
  C3                      1.00   0.00  0.00  0.00  0.03  0.96  0.00  0.00  0.68  0.00
  C19                     1.00   0.00  0.00  0.00  1.00  0.00  0.00  0.00  1.00  0.00
  C11                     1.00   0.00  0.00  0.00  0.16  0.84  0.00  0.00  1.00  0.00
  C20                     1.00   0.00  0.00  0.00  0.71  0.29  0.00  0.00  0.99  0.00
  C22                     1.00   0.00  0.00  0.00  0.94  0.06  0.00  0.00  1.00  0.00
  C12                     1.00   0.00  0.00  0.00  0.93  0.07  0.00  0.00  1.00  0.00
  C17                     1.00   0.00  0.00  0.00  0.64  0.36  0.00  0.00  0.98  0.00
  C10                     1.00   0.00  0.00  0.00  0.83  0.17  0.00  0.00  0.97  0.00
  C13                     1.00   0.00  0.00  0.00  0.90  0.10  0.00  0.00  0.33  0.00
  C18                     1.00   0.00  0.00  0.00  0.91  0.09  0.00  0.00  0.98  0.00
  C23                     1.00   0.00  0.00  0.00  0.80  0.20  0.00  0.00  0.96  0.00
  C4                      1.00   0.00  0.00  0.00  0.82  0.18  0.00  0.00  0.98  0.00
  C7                      1.00   0.00  0.00  0.00  0.95  0.05  0.00  0.00  0.97  0.00
  C14                     1.00   0.00  0.00  0.00  0.00  1.00  0.00  0.00  0.46  0.00
  C5                      1.00   0.00  0.00  0.00  0.93  0.07  0.00  0.00  0.95  0.00
  C8                      1.00   0.00  0.00  0.00  0.30  0.70  0.00  0.00  0.00  0.00
  C15                     1.00   0.04  0.00  0.00  0.00  0.96  0.00  0.00  0.01  0.00
  C21                     1.00   0.00  0.00  0.00  0.00  1.00  0.00  0.00  0.00  0.00
  
  
  *************************
  Conduit Surcharge Summary
  *************************
  
  ----------------------------------------------------------------------------
                                                           Hours        Hours 
                         --------- Hours Full --------   Above Full   Capacity
  Conduit                Both Ends  Upstream  Dnstream   Normal Flow   Limited
  ----------------------------------------------------------------------------
  C6                          0.01      0.85      0.01      0.73         0.01
  C10                         0.01      0.01     16.79      0.01         0.01
  C13                         0.01      0.01     15.42      0.01         0.01
  C18                         0.01      0.01     14.40      0.01         0.01
  C23                         0.01      0.01     16.75      0.01         0.01
  C4                          0.01      0.01     16.80      0.01         0.01
  C7                          0.01      0.01     16.21      0.01         0.01
  C5                          0.86      0.88      0.96      0.89         0.83
  C8                          0.01      1.80      0.01      1.83         0.01
  C15                         0.01      0.97      0.01      0.98         0.01
  C21                         0.01      1.10      0.01      1.07         0.01
  

  Analysis begun on:  Mon Sep 20 12:58:59 2021
  Analysis ended on:  Mon Sep 20 12:58:59 2021
  Total elapsed time: < 1 sec