
  EPA STORM WATER MANAGEMENT MODEL - VERSION 5.1 (Build 5.3.0.dev0)
  --------------------------------------------------------------

  WARNING 04: minimum elevation drop used for Conduit WS02004404WS02004405
  WARNING 03: negative offset ignored for Link YS02001904YS02001907
  
  *********************************************************
  NOTE: The summary statistics displayed in this report are
  based on results found at every computational time step,  
  not just on results from each reporting time step.
  *********************************************************
  
  ****************
  Analysis Options
  ****************
  Flow Units ............... LPS
  Process Models:
    Rainfall/Runoff ........ YES
    RDII ................... NO
    Snowmelt ............... NO
    Groundwater ............ NO
    Flow Routing ........... YES
    Ponding Allowed ........ NO
    Water Quality .......... YES
  Infiltration Method ...... HORTON
  Flow Routing Method ...... DYNWAVE
  Surcharge Method ......... EXTRAN
  Starting Date ............ 08/28/2015 08:00:00
  Ending Date .............. 08/28/2015 15:50:00
  Antecedent Dry Days ...... 8.0
  Report Time Step ......... 00:01:00
  Wet Time Step ............ 00:01:00
  Dry Time Step ............ 00:01:00
  Routing Time Step ........ 5.00 sec
  Variable Time Step ....... YES
  Maximum Trials ........... 8
  Number of Threads ........ 4
  Head Tolerance ........... 0.001500 m
  
  
  **************************        Volume         Depth
  Runoff Quantity Continuity     hectare-m            mm
  **************************     ---------       -------
  Total Precipitation ......         5.556        12.164
  Evaporation Loss .........         0.000         0.000
  Infiltration Loss ........         1.002         2.194
  Surface Runoff ...........         3.688         8.075
  Final Storage ............         0.866         1.897
  Continuity Error (%) .....        -0.019
  
  
  **************************           COD            SS            TN            TP         NH4-N
  Runoff Quality Continuity             kg            kg            kg            kg            kg
  **************************    ----------    ----------    ----------    ----------    ----------
  Initial Buildup ..........     41378.656     70582.865      1804.177       168.684      1032.807
  Surface Buildup ..........        19.275        34.271         2.335         0.213         1.362
  Wet Deposition ...........         0.000         0.000         0.000         0.000         0.000
  Sweeping Removal .........         0.000         0.000         0.000         0.000         0.000
  Infiltration Loss ........        84.023       157.502         1.599         0.111         0.761
  BMP Removal ..............         0.000         0.000         0.000         0.000         0.000
  Surface Runoff ...........      3122.074      5752.154        60.620         4.098        28.771
  Remaining Buildup ........     38190.779     64705.500      1744.271       164.686      1004.628
  Continuity Error (%) .....         0.003         0.003         0.001         0.001         0.001
  
  
  **************************        Volume        Volume
  Flow Routing Continuity        hectare-m      10^6 ltr
  **************************     ---------     ---------
  Dry Weather Inflow .......         0.616         6.165
  Wet Weather Inflow .......         3.687        36.870
  Groundwater Inflow .......         0.000         0.000
  RDII Inflow ..............         0.000         0.000
  External Inflow ..........         0.102         1.024
  External Outflow .........         1.962        19.617
  Flooding Loss ............         1.981        19.812
  Evaporation Loss .........         0.000         0.000
  Exfiltration Loss ........         0.000         0.000
  Initial Stored Volume ....         0.076         0.761
  Final Stored Volume ......         0.638         6.379
  Continuity Error (%) .....        -2.205
  
  
  **************************           COD            SS            TN            TP         NH4-N
  Quality Routing Continuity            kg            kg            kg            kg            kg
  **************************    ----------    ----------    ----------    ----------    ----------
  Dry Weather Inflow .......      1541.201      2465.922       147.955        18.494        92.472
  Wet Weather Inflow .......      3121.280      5750.805        60.603         4.097        28.763
  Groundwater Inflow .......         0.000         0.000         0.000         0.000         0.000
  RDII Inflow ..............         0.000         0.000         0.000         0.000         0.000
  External Inflow ..........       183.418       293.469        17.608         2.201        11.005
  External Outflow .........      2354.045      4020.863       153.273        18.083        92.896
  Flooding Loss ............      1838.053      3367.823        46.823         4.034        24.515
  Exfiltration Loss ........         0.000         0.000         0.000         0.000         0.000
  Mass Reacted .............         0.000         0.000         0.000         0.000         0.000
  Initial Stored Mass ......         0.000         0.000         0.000         0.000         0.000
  Final Stored Mass ........       529.855       909.931        23.103         2.447        13.341
  Continuity Error (%) .....         2.558         2.486         1.312         0.917         1.126
  
  
  *************************
  Highest Continuity Errors
  *************************
  Node HS02004842 (14.53%)
  Node YS02001884 (11.14%)
  Node JK-storage (-9.55%)
  Node YSB1171 (2.74%)
  Node HS02004817 (2.73%)
  
  
  ***************************
  Time-Step Critical Elements
  ***************************
  Link WS02006252WS02006251 (69.06%)
  Link WS02006280WS02006229 (8.80%)
  Link WS02004404WS02004405 (4.95%)
  Link WS02006238WS02006235 (3.51%)
  Link YS02006556YS02006558 (2.39%)
  
  
  ********************************
  Highest Flow Instability Indexes
  ********************************
  Link YS02163601YS02164001 (49)
  Link YS02163301YS02001633 (47)
  Link YS02001619YS02001622 (47)
  Link YS02001629YS02163301 (47)
  Link YS02164001YS02001641 (44)
  
  
  *************************
  Routing Time Step Summary
  *************************
  Minimum Time Step           :     0.50 sec
  Average Time Step           :     1.16 sec
  Maximum Time Step           :     5.00 sec
  Percent in Steady State     :    -0.00
  Average Iterations per Step :     4.78
  Percent Not Converging      :    24.59
  
  
  ***************************
  Subcatchment Runoff Summary
  ***************************
  
  ------------------------------------------------------------------------------------------------------------------------------
                            Total      Total      Total      Total     Imperv       Perv      Total       Total     Peak  Runoff
                           Precip      Runon       Evap      Infil     Runoff     Runoff     Runoff      Runoff   Runoff   Coeff
  Subcatchment                 mm         mm         mm         mm         mm         mm         mm    10^6 ltr      LPS
  ------------------------------------------------------------------------------------------------------------------------------
  sub0                      12.16       0.00       0.00       0.65      11.27       0.20      11.47        0.01     1.99   0.943
  sub1                      12.16       0.00       0.00       1.12      10.73       0.22      10.95        0.07    14.96   0.900
  sub2                      12.16       0.00       0.00       4.23       7.58       0.27       7.85        0.07    15.08   0.646
  sub3                      12.16       0.00       0.00       4.29       7.54       0.21       7.75        0.17    34.61   0.637
  sub4                      12.16       0.00       0.00       1.19      10.57       0.14      10.71        0.22    42.34   0.881
  sub5                      12.16       0.00       0.00       0.69      11.21       0.16      11.38        0.13    26.18   0.935
  sub7                      12.16       0.00       0.00       0.88      11.01       0.22      11.22        0.04     7.95   0.923
  sub8                      12.16       0.00       0.00       0.89      11.00       0.21      11.20        0.07    14.89   0.921
  sub9                      12.16       0.00       0.00       0.89      10.99       0.21      11.20        0.05    11.18   0.921
  sub10                     12.16       0.00       0.00       0.79      11.10       0.18      11.28        0.12    25.49   0.928
  sub11                     12.16       0.00       0.00       0.78      11.12       0.19      11.31        0.13    27.35   0.930
  sub12                     12.16       0.00       0.00       1.27      10.53       0.31      10.85        0.09    20.52   0.892
  sub14                     12.16       0.00       0.00       0.89      10.99       0.20      11.20        0.11    22.08   0.920
  sub15                     12.16       0.00       0.00       3.28       8.45       0.37       8.82        0.15    32.49   0.725
  sub16                     12.16       0.00       0.00       3.51       8.11       0.50       8.61        0.09    20.36   0.708
  sub17                     12.16       0.00       0.00       3.41       8.23       0.48       8.71        0.07    16.72   0.716
  sub22                     12.16       0.00       0.00       4.80       6.89       0.43       7.32        0.46   102.62   0.602
  sub23                     12.16       0.00       0.00       4.05       7.62       0.45       8.07        0.38    85.35   0.663
  sub60                     12.16       0.00       0.00       1.42       8.82       0.04       8.86        2.69   336.84   0.729
  sub61                     12.16       0.00       0.00       2.01       8.94       0.06       9.00        2.78   399.45   0.740
  sub62                     12.16       0.00       0.00       0.92       9.73       0.05       9.78        3.01   415.79   0.804
  sub63                     12.16       0.00       0.00       3.46       7.82       0.06       7.88        2.39   361.21   0.648
  sub64                     12.16       0.00       0.00       1.78       8.47       0.04       8.51        2.59   320.97   0.699
  sub65                     12.16       0.00       0.00       1.54       8.61       0.04       8.65        2.66   326.54   0.711
  sub66                     12.16       0.00       0.00       3.49       7.26       0.04       7.30        2.24   290.53   0.600
  sub67                     12.16       0.00       0.00       0.91      10.24       0.07      10.31        3.18   494.23   0.848
  sub68                     12.16       0.00       0.00       1.64       9.40       0.06       9.46        2.91   432.52   0.778
  sub69                     12.16       0.00       0.00       1.73       9.72       0.09       9.82        2.29   383.95   0.807
  sub70                     12.16      10.02       0.00       6.98      13.09       0.56      13.65        3.12   394.93   0.615
  sub71                     12.16       0.00       0.00       0.93       9.48       0.05       9.53        2.25   296.34   0.783
  sub72                     12.16       0.00       0.00       0.83       7.62       0.02       7.64        1.56   151.13   0.628
  1                         12.16      13.29       0.00       1.37      14.64       3.94      18.57        4.36   399.24   0.730
  2                         12.16       0.00       0.00       3.02       2.89       1.65       4.55        1.82   245.52   0.374
  
  
  ****************************
  Subcatchment Washoff Summary
  ****************************
  
  ------------------------------------------------------------------------------------------
                                 COD            SS            TN            TP         NH4-N
  Subcatchment                    kg            kg            kg            kg            kg
  ------------------------------------------------------------------------------------------
  sub0                         2.176         4.147         0.037         0.003         0.018
  sub1                         9.268        18.138         0.173         0.012         0.083
  sub2                         5.563        10.570         0.119         0.008         0.054
  sub3                        13.747        25.918         0.288         0.019         0.132
  sub4                        21.530        42.606         0.429         0.026         0.205
  sub5                        21.300        41.103         0.378         0.029         0.183
  sub7                         4.748         9.424         0.090         0.006         0.043
  sub8                         7.142        14.500         0.143         0.008         0.069
  sub9                         6.100        12.212         0.118         0.007         0.057
  sub10                       17.532        34.266         0.321         0.023         0.155
  sub11                       17.086        33.770         0.320         0.022         0.154
  sub12                       14.392        27.890         0.260         0.019         0.125
  sub14                       13.021        25.823         0.247         0.016         0.119
  sub15                       16.182        30.744         0.313         0.023         0.146
  sub16                       10.318        19.555         0.197         0.015         0.092
  sub17                        9.471        17.789         0.175         0.014         0.082
  sub22                       48.821        90.813         0.932         0.070         0.434
  sub23                       29.138        56.181         0.627         0.041         0.287
  sub60                      203.703       376.194         4.083         0.248         1.956
  sub61                      251.300       461.579         4.699         0.320         2.261
  sub62                      262.762       491.326         5.157         0.324         2.474
  sub63                      185.047       334.594         3.739         0.261         1.731
  sub64                      253.867       452.095         4.687         0.339         2.235
  sub65                      260.106       465.192         4.834         0.344         2.309
  sub66                      146.558       263.078         3.037         0.197         1.417
  sub67                      388.205       718.566         6.963         0.510         3.363
  sub68                      276.714       513.393         5.318         0.356         2.539
  sub69                      247.676       464.012         4.658         0.325         2.225
  sub70                      413.256       778.342         8.287         0.572         3.877
  sub71                      173.740       327.842         3.597         0.206         1.720
  sub72                      136.329       239.316         2.558         0.174         1.230
  1                          280.724       531.718         5.751         0.398         2.660
  2                           35.485        61.812         1.030         0.062         0.437
  ------------------------------------------------------------------------------------------
  System                    3783.006      6994.507        73.566         4.996        34.873
  
  
  ******************
  Node Depth Summary
  ******************
  
  ---------------------------------------------------------------------------------
                                 Average  Maximum  Maximum  Time of Max    Reported
                                   Depth    Depth      HGL   Occurrence   Max Depth
  Node                 Type       Meters   Meters   Meters  days hr:min      Meters
  ---------------------------------------------------------------------------------
  WS02001211           JUNCTION     0.77     0.83     5.67     0  03:08        0.83
  WS02001212           JUNCTION     0.48     0.56     5.62     0  03:07        0.56
  WS02001213           JUNCTION     0.72     0.83     5.59     0  03:06        0.83
  WS02003069           JUNCTION     0.52     0.69     5.27     0  03:06        0.69
  WS02003072           JUNCTION     0.58     0.73     5.10     0  03:06        0.73
  WS02003073           JUNCTION     0.35     0.46     4.52     0  03:07        0.46
  WS02003060           JUNCTION     0.46     0.60     5.54     0  03:05        0.60
  WS02003066           JUNCTION     0.25     0.36     5.92     0  03:05        0.36
  WS02003059           JUNCTION     0.77     0.88     5.57     0  03:06        0.88
  WS02003067           JUNCTION     0.60     0.79     6.11     0  03:04        0.79
  WS02004401           JUNCTION     0.73     1.14     7.14     0  03:01        1.13
  WS02004402           JUNCTION     0.76     1.14     7.10     0  03:03        1.13
  WS02004403           JUNCTION     0.77     1.12     7.05     0  03:03        1.12
  WS02004404           JUNCTION     0.85     1.18     7.03     0  03:03        1.17
  WS02004406           JUNCTION     0.84     1.12     6.95     0  03:03        1.11
  WS02004409           JUNCTION     0.54     0.87     6.64     0  03:04        0.87
  WS02004410           JUNCTION     0.56     0.87     6.59     0  03:04        0.87
  WS02004411           JUNCTION     0.57     0.86     6.54     0  03:04        0.86
  WS02004412           JUNCTION     0.58     0.85     6.49     0  03:04        0.85
  WS02004413           JUNCTION     0.74     0.98     6.45     0  03:04        0.98
  WS02004405           JUNCTION     0.84     1.16     7.01     0  03:02        1.15
  WS02006109           JUNCTION     0.82     1.31     7.93     0  03:01        1.30
  WS02006110           JUNCTION     0.80     1.15     7.74     0  03:02        1.14
  WS02006111           JUNCTION     0.25     0.65     7.36     0  03:03        0.65
  WS02006112           JUNCTION     0.91     1.42     7.30     0  03:02        1.41
  WS02006113           JUNCTION     0.37     0.65     7.54     0  03:03        0.65
  WS02006115           JUNCTION     0.63     1.09     7.23     0  03:03        1.09
  WS02006116           JUNCTION     0.71     1.14     7.18     0  03:03        1.14
  WS02006230           JUNCTION     0.84     1.52     8.26     0  03:02        1.51
  WS02006231           JUNCTION     0.59     1.22     8.34     0  03:02        1.21
  WS02006232           JUNCTION     0.73     1.36     8.40     0  03:03        1.35
  WS02006234           JUNCTION     0.67     1.32     8.47     0  03:02        1.31
  WS02006235           JUNCTION     0.72     1.37     8.53     0  03:02        1.35
  WS02006238           JUNCTION     0.74     1.39     8.53     0  03:01        1.38
  WS02006240           JUNCTION     0.64     1.28     8.57     0  03:01        1.27
  WS02006242           JUNCTION     0.69     1.33     8.60     0  03:02        1.33
  WS02006243           JUNCTION     0.57     1.21     8.63     0  03:00        1.20
  WS02006245           JUNCTION     0.54     1.17     8.65     0  03:01        1.16
  WS02006247           JUNCTION     0.55     1.17     8.67     0  02:59        1.16
  WS02006248           JUNCTION     0.49     1.10     8.68     0  03:00        1.09
  WS02006249           JUNCTION     0.50     1.09     8.69     0  02:50        1.09
  WS02006239           JUNCTION     0.70     1.35     8.56     0  03:02        1.34
  WS02006251           JUNCTION     0.47     1.38     9.05     0  03:30        1.22
  WS02006252           JUNCTION     0.30     0.95     9.20     0  03:30        0.75
  WS02006253           JUNCTION     0.50     1.44     9.09     0  03:30        1.28
  WS02006256           JUNCTION     1.85     2.35     9.28     0  00:42        2.35
  WS02004138           JUNCTION     0.19     0.20     7.45     0  00:00        0.19
  WS02004139           JUNCTION     0.72     0.77     5.68     0  03:08        0.77
  WS02004407           JUNCTION     0.24     0.37     6.68     0  03:03        0.37
  WS02006228           JUNCTION     0.84     1.44     8.09     0  03:02        1.43
  WS02006229           JUNCTION     0.83     1.49     8.18     0  03:02        1.48
  WS02006280           JUNCTION     0.07     0.20     8.47     0  03:02        0.20
  WS02006284           JUNCTION     0.37     0.56     8.96     0  03:02        0.56
  WS02006287           JUNCTION     0.10     0.30     9.25     0  03:01        0.30
  WSF200               JUNCTION     0.24     0.40     5.64     0  03:05        0.40
  HS02004901           JUNCTION     0.13     0.29    10.12     0  03:01        0.29
  HS02004881           JUNCTION     0.01     0.04     9.07     0  03:01        0.04
  HS02004876           JUNCTION     0.04     0.12     9.15     0  03:01        0.12
  HS02004870           JUNCTION     0.02     0.07     9.35     0  03:01        0.07
  HS02004862           JUNCTION     0.02     0.08     9.46     0  03:01        0.08
  HS02004856           JUNCTION     0.08     0.13     9.55     0  03:01        0.13
  HS02004852           JUNCTION     0.01     0.05     9.56     0  03:01        0.05
  HS02004848           JUNCTION     0.01     0.05     9.65     0  03:01        0.05
  HS02004842           JUNCTION     0.34     0.38     9.65     0  03:01        0.38
  HS02004837           JUNCTION     0.03     0.07     9.65     0  03:01        0.07
  HS02004830           JUNCTION     0.04     0.08     9.55     0  03:01        0.08
  HS02004824           JUNCTION     0.02     0.06     9.47     0  03:01        0.06
  HS02004817           JUNCTION     0.44     0.61     9.45     0  03:01        0.61
  HS02004807           JUNCTION     0.13     0.28     9.45     0  03:01        0.28
  HS02004802           JUNCTION     0.17     0.31     9.44     0  03:01        0.31
  HS02004799           JUNCTION     0.12     0.35     9.56     0  03:01        0.35
  HS02004792           JUNCTION     0.03     0.15     9.67     0  03:01        0.15
  HS02004788           JUNCTION     0.03     0.11    10.01     0  03:01        0.11
  HS02004785           JUNCTION     0.05     0.18    10.09     0  03:01        0.18
  HS02004777           JUNCTION     0.15     0.31    10.11     0  03:01        0.31
  HS02004770           JUNCTION     0.12     0.29    10.12     0  03:01        0.29
  HS02004480           JUNCTION     0.08     0.28     9.52     0  03:01        0.28
  HS02004479           JUNCTION     0.12     0.32     9.52     0  03:01        0.32
  HS02004478           JUNCTION     0.06     0.20     9.42     0  03:01        0.20
  YS02001745           JUNCTION     0.74     0.91     8.43     0  03:01        0.91
  YS02001748           JUNCTION     1.14     1.47     8.54     0  02:27        1.34
  YS02001751           JUNCTION     1.33     1.60     8.48     0  02:17        1.54
  YS02001754           JUNCTION     1.58     1.83     8.44     0  03:13        1.81
  YS02001762           JUNCTION     1.78     2.04     8.44     0  03:09        2.02
  YS02001765           JUNCTION     1.74     1.99     8.44     0  03:09        1.97
  YS02001767           JUNCTION     1.70     1.94     8.43     0  03:09        1.93
  YS02001770           JUNCTION     1.69     1.92     8.42     0  03:09        1.91
  YS02001774           JUNCTION     1.76     1.98     8.40     0  03:16        1.97
  YS02001779           JUNCTION     1.51     1.68     8.37     0  02:30        1.68
  YS02001882           JUNCTION     0.54     1.62     8.34     0  03:00        1.61
  YS02001884           JUNCTION     0.63     1.72     8.34     0  03:00        1.72
  YS02001759           JUNCTION     1.82     2.08     8.44     0  03:09        2.07
  YS02001887           JUNCTION     0.71     1.80     8.34     0  03:00        1.79
  YS02001890           JUNCTION     0.74     1.81     8.32     0  02:55        1.81
  YS02001898           JUNCTION     0.51     1.56     8.29     0  03:00        1.56
  YS02001901           JUNCTION     0.62     1.67     8.28     0  03:00        1.67
  YS02001904           JUNCTION     0.60     1.64     8.27     0  02:57        1.63
  YS02001907           JUNCTION     0.93     1.96     8.25     0  02:53        1.96
  YS02001910           JUNCTION     0.72     1.77     8.28     0  02:54        1.76
  YS02001915           JUNCTION     0.52     1.58     8.30     0  02:55        1.57
  YS02001918           JUNCTION     0.26     1.25     8.31     0  02:55        1.24
  YS02001619           JUNCTION     1.29     1.61     8.54     0  02:25        1.47
  YS02001629           JUNCTION     1.65     1.85     8.40     0  02:30        1.84
  YS02001641           JUNCTION     1.74     1.93     8.37     0  02:58        1.93
  YS02001644           JUNCTION     1.75     1.92     8.35     0  02:34        1.92
  YS02001652           JUNCTION     1.59     2.16     8.76     0  02:44        2.08
  YS02001655           JUNCTION     1.36     2.20     9.05     0  02:17        2.03
  YS02001920           JUNCTION     0.36     1.32     8.33     0  02:55        1.30
  YS02001923           JUNCTION     0.20     1.07     8.33     0  02:55        1.06
  YS02001926           JUNCTION     0.27     0.90     8.34     0  02:54        0.89
  YS02001929           JUNCTION     0.15     0.64     8.34     0  02:54        0.64
  YS02001658           JUNCTION     1.09     2.30     9.44     0  02:39        1.84
  YS02001661           JUNCTION     0.85     2.46     9.86     0  02:39        1.41
  YS02001664           JUNCTION     0.38     0.57     8.50     0  03:40        0.56
  YS02001622           JUNCTION     1.31     1.60     8.51     0  02:25        1.49
  YS02001633           JUNCTION     1.74     1.95     8.40     0  02:35        1.94
  YS02001649           JUNCTION     1.79     2.05     8.44     0  02:37        2.05
  YS02001757           JUNCTION     1.92     2.18     8.44     0  03:09        2.17
  YS02001895           JUNCTION     0.50     1.56     8.31     0  03:00        1.55
  YS02001625           JUNCTION     1.60     1.78     8.38     0  02:30        1.78
  YS02163301           JUNCTION     1.68     1.89     8.40     0  02:31        1.87
  YS02163601           JUNCTION     1.79     1.99     8.39     0  02:35        1.98
  YS02164001           JUNCTION     1.73     1.92     8.38     0  02:35        1.91
  YS02001647           JUNCTION     1.58     1.81     8.42     0  02:39        1.79
  YSB1154              JUNCTION     0.26     0.47     9.52     0  03:01        0.47
  YSB6556              JUNCTION     0.15     0.35     9.52     0  03:01        0.35
  YSB1174              JUNCTION     0.21     0.41     9.52     0  03:01        0.41
  YSB1171              JUNCTION     0.41     0.62     9.52     0  03:01        0.62
  YS02006553           JUNCTION     0.93     1.97     8.26     0  03:00        1.96
  YS02006561           JUNCTION     0.29     1.05     7.71     0  03:15        1.04
  YS02006556           JUNCTION     0.90     1.93     8.24     0  03:00        1.91
  YS02006558           JUNCTION     0.94     1.97     8.24     0  03:00        1.95
  YS02001783           JUNCTION     0.50     1.44     7.58     0  03:11        1.42
  YS02001784           JUNCTION     0.51     1.37     7.44     0  03:14        1.37
  YS02001786           JUNCTION     0.44     1.21     7.24     0  03:12        1.20
  YS02001788           JUNCTION     0.36     1.08     7.06     0  04:21        1.07
  YS02001790           JUNCTION     0.47     1.96     7.60     0  04:19        1.23
  YS02001791           JUNCTION     0.40     1.64     7.11     0  04:19        1.20
  YS02001793           JUNCTION     0.54     2.38     7.21     0  04:17        1.79
  WSC                  OUTFALL      0.35     0.46     1.13     0  03:07        0.46
  JK-storage           STORAGE      2.64     5.80     6.60     0  02:24        5.80
  CC-storage           STORAGE      1.17     1.40     8.40     0  03:20        1.40
  XR-storage           STORAGE      6.45     7.72     5.72     0  03:01        7.72
  
  
  *******************
  Node Inflow Summary
  *******************
  
  -------------------------------------------------------------------------------------------------
                                  Maximum  Maximum                  Lateral       Total        Flow
                                  Lateral    Total  Time of Max      Inflow      Inflow     Balance
                                   Inflow   Inflow   Occurrence      Volume      Volume       Error
  Node                 Type           LPS      LPS  days hr:min    10^6 ltr    10^6 ltr     Percent
  -------------------------------------------------------------------------------------------------
  WS02001211           JUNCTION      7.35   390.23     0  03:22       0.207        10.3       0.400
  WS02001212           JUNCTION      0.00   393.01     0  03:22           0        10.2       0.244
  WS02001213           JUNCTION      0.00   395.65     0  03:21           0        10.2       0.290
  WS02003069           JUNCTION      0.32  1231.98     0  03:06     0.00902        19.7       0.195
  WS02003072           JUNCTION      0.00  1231.86     0  03:06           0        19.7       0.230
  WS02003073           JUNCTION      1.82  1233.64     0  03:07      0.0514        19.7       0.271
  WS02003060           JUNCTION     16.53  1231.74     0  03:05       0.466        19.7       0.183
  WS02003066           JUNCTION      0.00   829.82     0  03:05           0        9.16       0.057
  WS02003059           JUNCTION      0.00   399.17     0  03:21           0        10.2       0.413
  WS02003067           JUNCTION      0.00   829.72     0  03:04           0        9.17       0.113
  WS02004401           JUNCTION      0.00   830.96     0  03:03           0        9.42       0.241
  WS02004402           JUNCTION      0.00   831.64     0  03:03           0         9.4       0.226
  WS02004403           JUNCTION      0.00   831.28     0  03:03           0        9.38       0.206
  WS02004404           JUNCTION      0.16   831.71     0  03:03     0.00457        9.36       0.138
  WS02004406           JUNCTION      0.00   830.88     0  03:03           0        9.33       0.373
  WS02004409           JUNCTION      0.00   830.36     0  03:03           0        9.29       0.204
  WS02004410           JUNCTION      0.00   830.03     0  03:04           0        9.27       0.229
  WS02004411           JUNCTION      0.00   829.84     0  03:04           0        9.25       0.234
  WS02004412           JUNCTION      0.00   829.74     0  03:04           0        9.22       0.249
  WS02004413           JUNCTION      0.00   829.71     0  03:04           0         9.2       0.362
  WS02004405           JUNCTION      0.04   831.81     0  03:04     0.00107        9.35       0.222
  WS02006109           JUNCTION      1.23   818.55     0  03:02      0.0347        9.47       0.187
  WS02006110           JUNCTION      0.00   818.37     0  03:02           0        9.45       0.216
  WS02006111           JUNCTION      0.00   817.64     0  03:02           0        9.42       0.043
  WS02006112           JUNCTION     16.72   830.27     0  03:03      0.0747        9.49       0.323
  WS02006113           JUNCTION      0.00   818.46     0  03:02           0        9.43       0.105
  WS02006115           JUNCTION      0.00   830.46     0  03:03           0        9.46       0.232
  WS02006116           JUNCTION      0.00   830.64     0  03:03           0        9.44       0.205
  WS02006230           JUNCTION     10.28   532.98     0  05:41        0.29         7.3       0.149
  WS02006231           JUNCTION      0.00   522.37     0  07:29           0        7.02       0.140
  WS02006232           JUNCTION      0.00   522.38     0  07:29           0        7.04       0.233
  WS02006234           JUNCTION      0.00   522.78     0  05:40           0        7.04       0.096
  WS02006235           JUNCTION      0.00   523.88     0  05:40           0        7.12       0.162
  WS02006238           JUNCTION      0.00   328.08     0  05:41           0        3.58       0.209
  WS02006240           JUNCTION      0.00   327.59     0  06:03           0        3.53       0.280
  WS02006242           JUNCTION      0.00   327.38     0  06:03           0        3.52       0.305
  WS02006243           JUNCTION      0.00   327.33     0  05:43           0         3.5       0.048
  WS02006245           JUNCTION      0.00   327.84     0  06:03           0        3.51       0.250
  WS02006247           JUNCTION      0.00   327.90     0  07:29           0        3.51       0.079
  WS02006248           JUNCTION      0.00   328.55     0  05:41           0         3.5      -0.019
  WS02006249           JUNCTION      0.00   454.27     0  03:30           0        3.66       0.098
  WS02006239           JUNCTION      0.00   327.96     0  05:41           0        3.56       0.222
  WS02006251           JUNCTION      0.08   434.52     0  03:30     0.00217         3.7      -0.010
  WS02006252           JUNCTION      0.00   400.00     0  03:30           0        3.24       0.001
  WS02006253           JUNCTION      1.99   123.15     0  03:29     0.00928        0.46      -0.090
  WS02006256           JUNCTION      0.00   983.00     0  02:30           0        10.6       0.006
  WS02004138           JUNCTION      0.00   380.00     0  00:00           0        10.1       0.066
  WS02004139           JUNCTION      0.32   394.45     0  00:00     0.00905        10.1       0.457
  WS02004407           JUNCTION      0.00   830.83     0  03:03           0        9.29       0.087
  WS02006228           JUNCTION      0.00   817.32     0  03:02           0        9.45       0.144
  WS02006229           JUNCTION      0.00   817.36     0  03:02           0        9.46       0.148
  WS02006280           JUNCTION      0.00   413.62     0  03:02           0        2.17       0.005
  WS02006284           JUNCTION      0.10   413.57     0  03:02      0.0027        2.17       0.041
  WS02006287           JUNCTION      0.00   413.23     0  03:01           0        2.17       0.033
  WSF200               JUNCTION      0.00   829.86     0  03:05           0        9.15       0.054
  HS02004901           JUNCTION     20.36    20.36     0  03:01      0.0902      0.0904       1.990
  HS02004881           JUNCTION      7.95    84.19     0  03:01      0.0378        0.41       0.103
  HS02004876           JUNCTION     14.96    76.76     0  03:01      0.0728       0.373       0.148
  HS02004870           JUNCTION     14.89    62.15     0  03:01      0.0716         0.3       0.037
  HS02004862           JUNCTION     15.28    47.68     0  03:01      0.0788       0.229       0.077
  HS02004856           JUNCTION     11.18    32.73     0  03:01      0.0539       0.152       0.963
  HS02004852           JUNCTION      0.00    21.94     0  03:01           0      0.0979       0.059
  HS02004848           JUNCTION     34.61    34.61     0  03:01       0.174       0.174       0.028
  HS02004842           JUNCTION      0.00    12.41     0  03:01           0      0.0895      17.000
  HS02004837           JUNCTION     31.84    43.95     0  03:01       0.303        0.38       0.214
  HS02004830           JUNCTION      0.15    43.86     0  03:01     0.00423        0.37       0.334
  HS02004824           JUNCTION     42.39    85.90     0  03:01       0.225       0.594       0.091
  HS02004817           JUNCTION      0.60    86.29     0  03:01      0.0169        0.61       2.809
  HS02004807           JUNCTION     27.35   112.32     0  03:01       0.131       0.726       0.604
  HS02004802           JUNCTION      0.00   111.36     0  03:01           0       0.723       0.549
  HS02004799           JUNCTION     22.08   258.93     0  03:01       0.107        1.24       0.223
  HS02004792           JUNCTION    102.90   238.00     0  03:01        0.47        1.14       0.036
  HS02004788           JUNCTION     34.16   135.94     0  03:01       0.199       0.669       0.058
  HS02004785           JUNCTION      0.15   103.52     0  03:01     0.00423       0.471       0.106
  HS02004777           JUNCTION      0.03   104.16     0  03:01    0.000846       0.472       1.115
  HS02004770           JUNCTION     85.35   105.10     0  03:01       0.385       0.473       0.659
  HS02004480           JUNCTION      0.00   302.45     0  03:01           0        1.46       0.077
  HS02004479           JUNCTION      0.00    44.91     0  03:02           0       0.232       0.317
  HS02004478           JUNCTION      0.00   413.09     0  03:01           0        2.17       0.014
  YS02001745           JUNCTION    336.84   386.61     0  02:26        2.69        2.69       0.421
  YS02001748           JUNCTION      0.04   551.24     0  02:27     0.00127        2.68       0.783
  YS02001751           JUNCTION      0.01   342.43     0  03:01     0.00031        2.65       0.902
  YS02001754           JUNCTION      0.26   343.48     0  03:01     0.00733        2.64       0.952
  YS02001762           JUNCTION      0.00   291.41     0  02:38           0        1.87       1.148
  YS02001765           JUNCTION      0.00   291.33     0  02:38           0        1.87       1.306
  YS02001767           JUNCTION      0.54   291.58     0  02:38      0.0151        1.89       1.920
  YS02001770           JUNCTION    415.94   523.36     0  03:04        3.01        3.33       0.948
  YS02001774           JUNCTION      0.00   524.22     0  03:05           0        1.73       1.472
  YS02001779           JUNCTION      0.01   524.68     0  03:06    0.000141         1.7       0.911
  YS02001882           JUNCTION      0.00    14.43     0  02:25           0      0.0196      13.271
  YS02001884           JUNCTION      0.00    25.62     0  02:25           0      0.0562      12.537
  YS02001759           JUNCTION    399.49   573.86     0  02:39        2.78         4.3       0.534
  YS02001887           JUNCTION    494.68   495.38     0  03:01        3.19        3.22       0.269
  YS02001890           JUNCTION      0.00   495.17     0  03:01           0        3.18       0.293
  YS02001898           JUNCTION      0.00   495.16     0  03:01           0        3.16       0.107
  YS02001901           JUNCTION      0.00   495.25     0  03:01           0        3.16       0.220
  YS02001904           JUNCTION      0.00   495.28     0  03:01           0        3.16       0.203
  YS02001907           JUNCTION      0.00   959.99     0  03:00           0        7.02       0.347
  YS02001910           JUNCTION      0.00   478.42     0  02:55           0        3.87       0.313
  YS02001915           JUNCTION    296.36   477.58     0  02:55        2.25        3.88       0.160
  YS02001918           JUNCTION      0.00   210.44     0  03:30           0        1.63       0.125
  YS02001619           JUNCTION    290.53   290.53     0  03:01        2.24        2.24       0.546
  YS02001629           JUNCTION      0.00   212.30     0  02:17           0        1.69       1.727
  YS02001641           JUNCTION      0.00   399.42     0  02:35           0        4.25       0.495
  YS02001644           JUNCTION    321.01  1307.77     0  03:01        2.59        10.1       0.258
  YS02001652           JUNCTION      0.00   378.76     0  03:01           0        2.35       1.010
  YS02001655           JUNCTION      0.15   388.69     0  02:17     0.00434        2.37       1.019
  YS02001920           JUNCTION      2.87   204.62     0  02:55      0.0809        1.63       0.187
  YS02001923           JUNCTION      0.04   195.94     0  02:55     0.00106        1.55       0.049
  YS02001926           JUNCTION      0.05   173.51     0  02:55     0.00147        1.56       0.217
  YS02001929           JUNCTION    151.13   151.13     0  03:01        1.56        1.56       0.036
  YS02001658           JUNCTION      0.00   618.42     0  02:23           0        2.41       0.915
  YS02001661           JUNCTION      0.00   657.48     0  02:36           0        2.86      -0.429
  YS02001664           JUNCTION    361.21   374.58     0  02:36        2.38        2.84       0.249
  YS02001622           JUNCTION      0.00   290.95     0  03:00           0        2.22       1.436
  YS02001633           JUNCTION    326.74   398.20     0  02:35        2.66        4.31       0.746
  YS02001649           JUNCTION      0.00   833.56     0  02:35           0        5.79       0.646
  YS02001757           JUNCTION      0.00  1581.09     0  02:35           0        9.02       1.032
  YS02001895           JUNCTION      0.00   495.39     0  03:01           0        3.17       0.164
  YS02001625           JUNCTION      0.00   290.77     0  03:01           0        2.19       1.801
  YS02163301           JUNCTION      0.00   208.03     0  02:25           0        1.67       1.453
  YS02163601           JUNCTION      0.11   398.71     0  02:35      0.0031        4.28       0.705
  YS02164001           JUNCTION      0.00   399.00     0  02:35           0        4.25       0.473
  YS02001647           JUNCTION      0.00   610.86     0  03:07           0           5       0.570
  YSB1154              JUNCTION     26.18    26.18     0  03:01       0.129        0.13       1.130
  YSB6556              JUNCTION      0.00    25.82     0  03:01           0        0.13       0.969
  YSB1174              JUNCTION     20.52    20.52     0  03:01      0.0948      0.0953       1.368
  YSB1171              JUNCTION      0.00    45.30     0  03:01           0       0.231       2.821
  YS02006553           JUNCTION      0.00   747.44     0  02:54           0        6.75       0.232
  YS02006561           JUNCTION      0.00  1142.71     0  02:58           0        9.62       0.009
  YS02006556           JUNCTION      0.00   746.91     0  02:54           0        6.75       0.169
  YS02006558           JUNCTION    433.40  1143.47     0  02:57        2.93        9.66       0.051
  YS02001783           JUNCTION      0.00  1142.46     0  02:58           0        9.62       0.024
  YS02001784           JUNCTION      1.06  1143.93     0  02:58      0.0299        9.65       0.038
  YS02001786           JUNCTION      0.06  1143.52     0  02:58     0.00159        9.65       0.038
  YS02001788           JUNCTION      0.07  1143.39     0  02:57       0.002        9.65       0.024
  YS02001790           JUNCTION      0.15  1152.66     0  02:55     0.00437        9.65       0.019
  YS02001791           JUNCTION      0.00  1267.56     0  02:54           0        9.65       0.012
  YS02001793           JUNCTION      0.00  1199.46     0  02:53           0        9.65       0.001
  WSC                  OUTFALL       0.00  1233.59     0  03:07           0        19.6       0.000
  JK-storage           STORAGE       0.00  1145.47     0  02:55           0         9.8      -8.719
  CC-storage           STORAGE       0.00  1580.44     0  02:35           0        7.11       0.921
  XR-storage           STORAGE     844.76   844.76     0  03:01        11.8        12.4      -0.002
  
  
  **********************
  Node Surcharge Summary
  **********************
  
  Surcharging occurs when water rises above the top of the highest conduit.
  ---------------------------------------------------------------------
                                               Max. Height   Min. Depth
                                   Hours       Above Crown    Below Rim
  Node                 Type      Surcharged         Meters       Meters
  ---------------------------------------------------------------------
  WS02004401           JUNCTION        0.41          0.135        1.525
  WS02004402           JUNCTION        0.43          0.138        1.602
  WS02004403           JUNCTION        0.45          0.123        1.907
  WS02004404           JUNCTION        0.79          0.177        2.603
  WS02004406           JUNCTION        0.56          0.116        2.334
  WS02004405           JUNCTION        0.63          0.157        2.643
  WS02006109           JUNCTION        4.01          0.491        1.329
  WS02006110           JUNCTION        1.70          0.242        1.608
  WS02006112           JUNCTION        2.38          0.416        1.264
  WS02006115           JUNCTION        0.30          0.078        2.172
  WS02006116           JUNCTION        0.33          0.085        2.205
  WS02006230           JUNCTION        1.27          0.438        1.132
  WS02006231           JUNCTION        1.73          0.506        1.024
  WS02006232           JUNCTION        3.72          0.664        0.816
  WS02006234           JUNCTION        3.06          0.596        0.644
  WS02006235           JUNCTION        3.39          0.660        0.630
  WS02006238           JUNCTION        3.46          0.670        0.760
  WS02006240           JUNCTION        2.59          0.571        0.819
  WS02006242           JUNCTION        2.74          0.602        0.218
  WS02006243           JUNCTION        1.78          0.503        0.267
  WS02006245           JUNCTION        1.60          0.459        0.391
  WS02006247           JUNCTION        1.60          0.463        0.297
  WS02006248           JUNCTION        1.37          0.376        0.004
  WS02006249           JUNCTION        1.41          0.390        0.000
  WS02006239           JUNCTION        2.93          0.607        0.683
  WS02006251           JUNCTION        0.81          0.349        0.831
  WS02006252           JUNCTION        1.43          0.553        0.547
  WS02006253           JUNCTION        0.85          0.403        2.077
  WS02006256           JUNCTION        6.79          2.050        0.000
  WS02006228           JUNCTION        3.98          0.608        1.592
  YS02001748           JUNCTION        5.31          0.387        0.803
  YS02001751           JUNCTION        5.49          0.598        0.602
  YS02001754           JUNCTION        5.69          0.780        0.370
  YS02001762           JUNCTION        5.87          1.044        0.106
  YS02001765           JUNCTION        5.84          0.989        0.111
  YS02001767           JUNCTION        5.81          0.943        0.087
  YS02001770           JUNCTION        5.80          0.890        0.030
  YS02001774           JUNCTION        5.86          0.982        0.068
  YS02001779           JUNCTION        5.68          0.680        0.000
  YS02001882           JUNCTION        0.84          0.619        0.211
  YS02001884           JUNCTION        0.87          0.659        0.211
  YS02001759           JUNCTION        5.89          1.081        0.129
  YS02001887           JUNCTION        0.97          0.748        0.202
  YS02001890           JUNCTION        1.00          0.760        0.000
  YS02001898           JUNCTION        0.78          0.528        0.212
  YS02001901           JUNCTION        0.92          0.674        0.196
  YS02001904           JUNCTION        0.89          0.638        0.212
  YS02001907           JUNCTION        1.75          0.950        0.000
  YS02001910           JUNCTION        1.06          0.773        0.327
  YS02001915           JUNCTION        0.81          0.584        0.416
  YS02001918           JUNCTION        0.57          0.248        0.562
  YS02001619           JUNCTION        5.47          0.610        0.000
  YS02001629           JUNCTION        5.48          0.470        0.000
  YS02001641           JUNCTION        5.85          0.934        0.166
  YS02001644           JUNCTION        5.85          0.920        0.000
  YS02001652           JUNCTION        5.73          1.130        0.000
  YS02001655           JUNCTION        5.51          1.200        0.000
  YS02001920           JUNCTION        0.60          0.321        0.819
  YS02001658           JUNCTION        5.34          1.300        0.000
  YS02001661           JUNCTION        0.28          1.390        0.000
  YS02001622           JUNCTION        5.50          0.602        0.018
  YS02001633           JUNCTION        5.83          0.929        0.131
  YS02001649           JUNCTION        5.88          1.050        0.000
  YS02001757           JUNCTION        5.98          1.181        0.029
  YS02001895           JUNCTION        0.80          0.562        0.188
  YS02001625           JUNCTION        5.76          0.780        0.000
  YS02163301           JUNCTION        5.81          0.886        0.144
  YS02163601           JUNCTION        5.87          0.991        0.089
  YS02164001           JUNCTION        5.83          0.921        0.179
  YS02001647           JUNCTION        5.75          0.805        0.095
  YS02006553           JUNCTION        1.85          0.973        0.217
  YS02006561           JUNCTION        0.57          0.251        0.899
  YS02006556           JUNCTION        1.34          0.893        0.457
  YS02006558           JUNCTION        1.29          0.874        0.526
  YS02001783           JUNCTION        1.10          0.636        0.964
  YS02001784           JUNCTION        1.04          0.574        0.916
  YS02001786           JUNCTION        0.79          0.414        1.016
  YS02001788           JUNCTION        0.56          0.284        1.196
  YS02001790           JUNCTION        1.11          1.157        0.000
  YS02001791           JUNCTION        1.26          0.840        1.080
  YS02001793           JUNCTION        1.78          1.376        1.224
  
  
  *********************
  Node Flooding Summary
  *********************
  
  Flooding refers to all water that overflows a node, whether it ponds or not.
  --------------------------------------------------------------------------
                                                             Total   Maximum
                                 Maximum   Time of Max       Flood    Ponded
                        Hours       Rate    Occurrence      Volume     Depth
  Node                 Flooded       LPS   days hr:min    10^6 ltr    Meters
  --------------------------------------------------------------------------
  WS02006249              0.76    159.28      0  03:30       0.155     0.000
  WS02006256              3.90    810.37      0  03:02       6.962     0.000
  YS02001779              2.72    524.18      0  03:04       1.680     0.000
  YS02001890              0.01      0.97      0  03:00       0.000     0.000
  YS02001907              0.43    314.00      0  03:01       0.260     0.000
  YS02001619              0.01     29.82      0  02:25       0.000     0.000
  YS02001629              0.01     10.86      0  02:30       0.000     0.000
  YS02001644              4.68   1307.18      0  03:01       8.415     0.000
  YS02001652              0.01     13.17      0  02:44       0.000     0.000
  YS02001655              0.01    181.91      0  02:17       0.000     0.000
  YS02001658              0.01      8.78      0  02:39       0.000     0.000
  YS02001661              0.01    148.17      0  02:43       0.000     0.000
  YS02001649              0.06     45.27      0  02:39       0.002     0.000
  YS02001625              1.18    234.11      0  03:01       0.463     0.000
  YS02001790              0.01    223.07      0  04:19       0.000     0.000
  JK-storage              0.22    424.83      0  04:22       0.170     0.000
  XR-storage              2.95    458.27      0  03:01       1.705     0.000
  
  
  **********************
  Storage Volume Summary
  **********************
  
  --------------------------------------------------------------------------------------------------
                         Average     Avg  Evap Exfil       Maximum     Max    Time of Max    Maximum
                          Volume    Pcnt  Pcnt  Pcnt        Volume    Pcnt     Occurrence    Outflow
  Storage Unit           1000 m3    Full  Loss  Loss       1000 m3    Full    days hr:min        LPS
  --------------------------------------------------------------------------------------------------
  JK-storage               0.132      45     0     0         0.291     100       0  02:24     983.00
  CC-storage               3.259      21     0     0         3.910      25       0  03:20     400.00
  XR-storage               0.774      83     0     0         0.926     100       0  03:01     380.00
  
  
  ***********************
  Outfall Loading Summary
  ***********************
  
  ---------------------------------------------------------------------------------------------------------------------------------
                         Flow       Avg       Max       Total         Total         Total         Total         Total         Total
                         Freq      Flow      Flow      Volume           COD            SS            TN            TP         NH4-N
  Outfall Node           Pcnt       LPS       LPS    10^6 ltr            kg            kg            kg            kg            kg
  ---------------------------------------------------------------------------------------------------------------------------------
  WSC                  100.00    785.99   1233.59      19.617      2354.257      4021.213       153.292        18.086        92.907
  ---------------------------------------------------------------------------------------------------------------------------------
  System               100.00    785.99   1233.59      19.617      2354.257      4021.213       153.292        18.086        92.907
  
  
  ********************
  Link Flow Summary
  ********************
  
  -----------------------------------------------------------------------------
                                 Maximum  Time of Max   Maximum    Max/    Max/
                                  |Flow|   Occurrence   |Veloc|    Full    Full
  Link                 Type          LPS  days hr:min     m/sec    Flow   Depth
  -----------------------------------------------------------------------------
  WS02003066WSF200     CONDUIT    829.86     0  03:05      2.95    0.14    0.30
  WS02006287WS02006284 CONDUIT    413.48     0  03:02      2.04    0.19    0.30
  WS02006284WS02006280 CONDUIT    413.62     0  03:02      2.28    0.17    0.28
  WS02006280WS02006229 CONDUIT    413.62     0  03:02      3.52    0.09    0.25
  WS02006229WS02006228 CONDUIT    817.32     0  03:02      1.63    2.71    1.00
  WS02006256WS02006235 CONDUIT    264.10     0  00:42      3.74    2.80    1.00
  WS02006253WS02006251 CONDUIT    106.39     0  03:29      0.55    0.32    1.00
  WS02006252WS02006251 CONDUIT    405.49     0  03:30      3.23    1.49    1.00
  WS02006251WS02006249 CONDUIT    454.27     0  03:30      1.18    1.31    1.00
  WS02006249WS02006248 CONDUIT    328.55     0  05:41      1.09    1.80    1.00
  WS02006248WS02006247 CONDUIT    327.90     0  07:29      1.05    0.71    1.00
  WS02006247WS02006245 CONDUIT    327.84     0  06:03      1.01    2.60    1.00
  WS02006245WS02006243 CONDUIT    327.33     0  05:43      1.07    0.97    1.00
  WS02006243WS02006242 CONDUIT    327.38     0  06:03      0.91    0.70    1.00
  WS02006242WS02006240 CONDUIT    327.59     0  06:03      0.86    1.30    1.00
  WS02006240WS02006239 CONDUIT    327.96     0  05:41      0.88    1.03    1.00
  WS02006239WS02006238 CONDUIT    328.08     0  05:41      0.85    1.05    1.00
  WS02006238WS02006235 CONDUIT    328.39     0  07:30      1.05    0.73    1.00
  WS02006235WS02006234 CONDUIT    522.78     0  05:40      1.36    5.52    1.00
  WS02006234WS02006232 CONDUIT    522.38     0  07:29      1.36    1.06    1.00
  WS02006232WS02006231 CONDUIT    522.37     0  07:29      1.36    1.09    1.00
  WS02006231WS02006230 CONDUIT    522.70     0  05:41      1.38    7.93    1.00
  WS02006230WS02006229 CONDUIT    534.91     0  05:41      1.39   11.90    1.00
  WS02006228WS02006109 CONDUIT    817.32     0  03:02      1.63    3.57    1.00
  WS02006116WS02004401 CONDUIT    830.96     0  03:03      1.06    1.15    1.00
  WS02006115WS02006116 CONDUIT    830.64     0  03:03      1.06    1.07    1.00
  WS02006113WS02006111 CONDUIT    817.64     0  03:02      2.59    0.98    0.81
  WS02006112WS02006115 CONDUIT    830.46     0  03:03      1.06    0.49    1.00
  WS02006111WS02006112 CONDUIT    818.11     0  03:04      1.73    0.39    0.90
  WS02006110WS02006113 CONDUIT    818.46     0  03:02      1.71    0.74    0.90
  WS02006109WS02006110 CONDUIT    818.37     0  03:02      1.63    1.57    1.00
  WS02004411WS02004412 CONDUIT    829.74     0  03:04      1.16    1.18    0.85
  WS02004401WS02004402 CONDUIT    831.64     0  03:03      1.06    1.00    1.00
  WS02004413WS02003067 CONDUIT    829.72     0  03:04      1.42    0.36    0.70
  WS02004412WS02004413 CONDUIT    829.71     0  03:04      1.10    0.56    0.91
  WS02004410WS02004411 CONDUIT    829.84     0  03:04      1.15    1.13    0.86
  WS02004409WS02004410 CONDUIT    830.03     0  03:04      1.14    1.07    0.87
  WS02004407WS02004409 CONDUIT    830.36     0  03:03      1.63    0.29    0.62
  WS02004406WS02004407 CONDUIT    830.83     0  03:03      1.45    0.37    0.69
  WS02004405WS02004406 CONDUIT    830.88     0  03:03      1.06    1.64    1.00
  WS02004404WS02004405 CONDUIT    831.78     0  03:04      1.06    8.15    1.00
  WS02004403WS02004404 CONDUIT    831.55     0  03:03      1.06    0.60    1.00
  WS02004402WS02004403 CONDUIT    831.28     0  03:03      1.06    1.19    1.00
  WS02004139WS02001211 CONDUIT    382.89     0  03:22      0.90    0.48    0.63
  WS02004138WS02004139 CONDUIT    394.13     0  00:00      3.62    0.08    0.46
  WS02003067WS02003066 CONDUIT    829.82     0  03:05      1.54    0.27    0.48
  WS02001213WS02003059 CONDUIT    399.17     0  03:21      0.89    0.66    0.85
  WS02001212WS02001213 CONDUIT    395.65     0  03:21      1.32    0.61    0.53
  WS02001211WS02001212 CONDUIT    393.01     0  03:22      0.78    0.30    0.69
  WS02003072WS02003073 CONDUIT   1231.82     0  03:07      1.90    2.66    0.56
  WS02003069WS02003072 CONDUIT   1231.86     0  03:06      1.77    0.59    0.59
  WS02003060WS02003069 CONDUIT   1231.66     0  03:06      1.99    0.48    0.54
  WS02003059WS02003060 CONDUIT    403.72     0  03:20      0.95    0.26    0.74
  HS02004901HS02004770 CONDUIT     20.53     0  03:01      0.07    0.08    0.42
  HS02004876HS02004881 CONDUIT     76.55     0  03:01      0.95    0.81    0.12
  HS02004870HS02004876 CONDUIT     61.90     0  03:01      0.65    0.04    0.14
  HS02004842HS02004848 CONDUIT     12.41     0  03:01      0.06    0.01    0.31
  HS02004837HS02004842 CONDUIT     12.98     0  03:02      0.42    0.01    0.32
  HS02004830HS02004837 CONDUIT     43.71     0  03:01      0.57    0.04    0.11
  HS02004824HS02004830 CONDUIT     43.67     0  03:01      0.59    0.06    0.11
  HS02004817HS02004824 CONDUIT     85.69     0  03:01      0.26    0.04    0.48
  HS02004770HS02004777 CONDUIT    104.13     0  03:01      0.35    0.19    0.43
  HS02004799HS02004480 CONDUIT    258.30     0  03:01      0.83    0.33    0.44
  HS02004792HS02004799 CONDUIT    237.05     0  03:01      0.95    0.15    0.36
  HS02004788HS02004792 CONDUIT    135.43     0  03:01      1.06    0.09    0.18
  HS02004785HS02004788 CONDUIT    103.22     0  03:02      0.71    0.78    0.21
  HS02004777HS02004785 CONDUIT    103.37     0  03:01      0.42    0.13    0.35
  HS02004480HS02004478 CONDUIT    302.29     0  03:01      1.26    1.27    0.34
  HS02004479HS02004480 CONDUIT     46.30     0  03:02      0.32    0.04    0.43
  HS02004862HS02004870 CONDUIT     47.43     0  03:01      0.66    0.05    0.10
  HS02004848HS02004852 CONDUIT     21.94     0  03:01      0.45    0.02    0.07
  HS02004856HS02004862 CONDUIT     32.47     0  03:01      0.48    0.03    0.10
  HS02004852HS02004856 CONDUIT     21.85     0  03:02      0.25    0.02    0.13
  HS02004802HS02004478 CONDUIT    111.52     0  03:02      0.45    0.10    0.36
  HS02004478WS02006287 CONDUIT    413.23     0  03:01      1.75    0.12    0.26
  HS02004817HS02004807 CONDUIT     86.14     0  03:01      0.19    0.05    0.63
  HS02004807HS02004802 CONDUIT    111.36     0  03:01      0.38    0.21    0.42
  YS02001759YS02001757 CONDUIT    573.87     0  02:39      0.73    0.41    1.00
  YS02001762YS02001759 CONDUIT    292.02     0  02:38      0.37    0.34    1.00
  YS02001765YS02001762 CONDUIT    291.41     0  02:38      0.37    0.27    1.00
  YS02001770YS02001767 CONDUIT    291.04     0  02:38      0.37    1.15    1.00
  YS02001774YS02001770 CONDUIT    524.22     0  03:05      0.67    0.33    1.00
  YS02001779YS02001774 CONDUIT    524.68     0  03:06      0.67    0.26    1.00
  YS02001649YS02001757 CONDUIT    834.66     0  02:35      1.06    0.51    1.00
  YS02001767YS02001765 CONDUIT    291.33     0  02:38      0.37    0.37    1.00
  YS02006561YS02001783 CONDUIT   1142.46     0  02:58      2.27    0.59    1.00
  YS02001783YS02001784 CONDUIT   1142.87     0  02:58      2.27    1.58    1.00
  YS02001784YS02001785 CONDUIT   1143.47     0  02:58      2.27    2.66    1.00
  YS02001788YS02001790 CONDUIT   1152.51     0  02:55      2.71    0.85    1.00
  YS02001790YS02001791 CONDUIT   1267.56     0  02:54      3.40    1.38    1.00
  YS02001791YS02001793 CONDUIT   1199.46     0  02:53      6.28    0.52    1.00
  YS02001910YS02001907 CONDUIT    477.69     0  02:55      0.61    0.27    1.00
  YS02001786YS02001788 CONDUIT   1143.32     0  02:57      2.45    2.20    1.00
  YS02001915YS02001910 CONDUIT    478.42     0  02:55      0.61    0.24    1.00
  YS02001918YS02001915 CONDUIT    246.34     0  03:31      0.44    0.14    1.00
  YS02001923YS02001920 CONDUIT    201.75     0  02:55      0.72    0.09    1.00
  YS02001926YS02001923 CONDUIT    195.90     0  02:55      0.83    0.28    0.87
  YS02001929YS02001926 CONDUIT    173.46     0  02:55      0.89    0.08    0.77
  YS02001920YS02001918 CONDUIT    210.44     0  03:30      0.70    0.20    1.00
  YS02001629YS02163301 CONDUIT    208.03     0  02:25      0.26    0.26    1.00
  YS02001619YS02001622 CONDUIT    290.95     0  03:00      0.61    0.43    1.00
  YS02001622YS02001625 CONDUIT    290.77     0  03:01      0.37    0.16    1.00
  YS02001625YS02001629 CONDUIT    212.30     0  02:17      0.27    0.10    1.00
  YS02163301YS02001633 CONDUIT    208.52     0  02:24      0.27    0.20    1.00
  YS02163601YS02164001 CONDUIT    399.00     0  02:35      0.51    0.35    1.00
  YS02164001YS02001641 CONDUIT    399.42     0  02:35      0.51    0.55    1.00
  YS02001641YS02001644 CONDUIT    400.71     0  02:27      0.51    1.30    1.00
  YS02001647YS02001649 CONDUIT    610.86     0  03:07      0.78    0.32    1.00
  YS02006553YS02006556 CONDUIT    746.91     0  02:54      0.95    0.64    1.00
  YS02006556YS02006558 CONDUIT    747.45     0  02:54      0.95    0.59    1.00
  YSB6556YSB1171       CONDUIT     25.76     0  03:03      0.09    0.03    0.70
  YS02001907YS02006553 CONDUIT    747.44     0  02:54      0.83    0.88    1.00
  YS02006558YS02006561 CONDUIT   1142.71     0  02:58      4.04    2.53    1.00
  YS02001633YS02163601 CONDUIT    398.60     0  02:35      0.51    0.42    1.00
  YS02001644YS02001647 CONDUIT    611.51     0  03:07      0.78    0.36    1.00
  YS02001745YS02001748 CONDUIT    551.20     0  02:27      1.47    0.21    0.96
  YS02001748YS02001751 CONDUIT    342.41     0  03:01      1.06    0.17    1.00
  YS02001751YS02001754 CONDUIT    343.22     0  03:01      0.92    0.17    1.00
  YS02001754YS02001757 CONDUIT    343.44     0  03:01      0.44    0.14    1.00
  YS02001882YS02001884 CONDUIT     14.43     0  02:25      0.13    0.02    1.00
  YS02001884YS02001887 CONDUIT     25.62     0  02:25      0.09    0.03    1.00
  YS02001890YS02001895 CONDUIT    495.39     0  03:01      0.63    0.23    1.00
  YS02001895YS02001898 CONDUIT    495.16     0  03:01      0.63    0.86    1.00
  YS02001898YS02001901 CONDUIT    495.25     0  03:01      0.63    0.32    1.00
  YS02001901YS02001904 CONDUIT    495.28     0  03:01      0.63    0.77    1.00
  YS02001904YS02001907 CONDUIT    495.84     0  03:01      0.63    0.17    1.00
  YS02001887YS02001890 CONDUIT    495.17     0  03:01      0.63    0.85    1.00
  YS02001652YS02001649 CONDUIT    380.19     0  03:01      0.63    0.19    1.00
  YS02001655YS02001652 CONDUIT    378.76     0  03:01      0.98    0.18    1.00
  YS02001658YS02001655 CONDUIT    388.53     0  02:17      1.22    0.16    1.00
  YS02001661YS02001658 CONDUIT    618.42     0  02:23      1.55    0.24    1.00
  YS02001664YS02001661 CONDUIT    657.48     0  02:36      1.43    0.21    0.75
  YSB1154YSB6556       CONDUIT     25.82     0  03:01      0.17    0.05    0.59
  YSB1174YSB1171       CONDUIT     20.15     0  03:01      0.07    0.03    0.70
  YSB1171HS02004479    CONDUIT     44.91     0  03:02      0.54    0.03    0.55
  HS02004881HS02006253 CONDUIT     84.16     0  03:01      2.05    0.02    0.53
  YS02001793JiankangQianchi CONDUIT   1145.47     0  02:55     16.30    0.09    1.00
  YS02001757CaochengTiaoxuchi CONDUIT   1580.44     0  02:35      2.02    0.69    1.00
  WSF200WS02003060     CONDUIT    829.94     0  03:05      1.84    0.18    0.42
  1                    CONDUIT   1233.59     0  03:07      3.52    0.43    0.46
  CC-Pump-1            PUMP       200.00     0  02:50              1.00
  CC-Pump-2            PUMP       200.00     0  03:30              1.00
  JK-Pump-1            PUMP       300.00     0  02:20              1.00
  JK-Pump-2            PUMP       683.00     0  02:30              1.00
  XR-Pump-1            PUMP        95.00     0  00:00              1.00
  XR-Pump-2            PUMP        95.00     0  00:00              1.00
  XR-Pump-3            PUMP        95.00     0  00:00              1.00
  XR-Pump-4            PUMP        95.00     0  00:00              1.00
  
  
  ***************************
  Flow Classification Summary
  ***************************
  
  -------------------------------------------------------------------------------------
                      Adjusted    ---------- Fraction of Time in Flow Class ---------- 
                       /Actual         Up    Down  Sub   Sup   Up    Down  Norm  Inlet 
  Conduit               Length    Dry  Dry   Dry   Crit  Crit  Crit  Crit  Ltd   Ctrl  
  -------------------------------------------------------------------------------------
  WS02003066WSF200        1.00   0.00  0.05  0.00  0.00  0.94  0.00  0.00  0.47  0.00
  WS02006287WS02006284    1.00   0.03  0.01  0.00  0.62  0.34  0.00  0.00  0.62  0.00
  WS02006284WS02006280    1.00   0.04  0.00  0.00  0.00  0.00  0.00  0.96  0.00  0.00
  WS02006280WS02006229    1.00   0.04  0.00  0.00  0.00  0.02  0.00  0.94  0.04  0.00
  WS02006229WS02006228    1.00   0.00  0.00  0.00  1.00  0.00  0.00  0.00  0.00  0.00
  WS02006256WS02006235    1.00   0.02  0.00  0.00  0.98  0.00  0.00  0.00  0.00  0.00
  WS02006253WS02006251    1.00   0.01  0.02  0.00  0.96  0.00  0.01  0.00  0.00  0.00
  WS02006252WS02006251    1.00   0.17  0.00  0.00  0.10  0.00  0.73  0.00  0.00  0.00
  WS02006251WS02006249    1.00   0.00  0.00  0.00  1.00  0.00  0.00  0.00  0.27  0.00
  WS02006249WS02006248    1.00   0.00  0.00  0.00  0.89  0.00  0.11  0.00  0.00  0.00
  WS02006248WS02006247    1.00   0.00  0.00  0.00  0.98  0.00  0.00  0.01  0.19  0.00
  WS02006247WS02006245    1.00   0.01  0.00  0.00  0.97  0.00  0.00  0.03  0.00  0.00
  WS02006245WS02006243    1.00   0.01  0.00  0.00  0.95  0.00  0.00  0.05  0.01  0.00
  WS02006243WS02006242    1.00   0.01  0.00  0.00  0.98  0.00  0.00  0.01  0.21  0.00
  WS02006242WS02006240    1.00   0.01  0.01  0.00  0.98  0.00  0.00  0.00  0.00  0.00
  WS02006240WS02006239    1.00   0.02  0.00  0.00  0.94  0.00  0.00  0.03  0.01  0.00
  WS02006239WS02006238    1.00   0.02  0.00  0.00  0.98  0.00  0.00  0.00  0.06  0.00
  WS02006238WS02006235    1.00   0.02  0.00  0.00  0.98  0.00  0.00  0.00  0.00  0.00
  WS02006235WS02006234    1.00   0.02  0.00  0.00  0.96  0.00  0.02  0.00  0.00  0.00
  WS02006234WS02006232    1.00   0.02  0.00  0.00  0.98  0.00  0.00  0.00  0.02  0.00
  WS02006232WS02006231    1.00   0.02  0.00  0.00  0.98  0.00  0.00  0.00  0.00  0.00
  WS02006231WS02006230    1.00   0.02  0.00  0.00  0.75  0.00  0.23  0.00  0.00  0.00
  WS02006230WS02006229    1.00   0.00  0.00  0.00  0.99  0.00  0.00  0.01  0.00  0.00
  WS02006228WS02006109    1.00   0.00  0.00  0.00  1.00  0.00  0.00  0.00  0.00  0.00
  WS02006116WS02004401    1.00   0.03  0.00  0.00  0.97  0.00  0.00  0.00  0.00  0.00
  WS02006115WS02006116    1.00   0.03  0.00  0.00  0.97  0.00  0.00  0.00  0.00  0.00
  WS02006113WS02006111    1.00   0.01  0.00  0.00  0.04  0.95  0.00  0.00  0.15  0.00
  WS02006112WS02006115    1.00   0.02  0.01  0.00  0.97  0.00  0.00  0.00  0.00  0.00
  WS02006111WS02006112    1.00   0.02  0.00  0.00  0.98  0.00  0.00  0.00  0.84  0.00
  WS02006110WS02006113    1.00   0.00  0.01  0.00  0.99  0.00  0.00  0.00  0.00  0.00
  WS02006109WS02006110    1.00   0.00  0.00  0.00  0.99  0.00  0.00  0.00  0.00  0.00
  WS02004411WS02004412    1.00   0.04  0.00  0.00  0.96  0.00  0.00  0.00  0.00  0.00
  WS02004401WS02004402    1.00   0.03  0.00  0.00  0.97  0.00  0.00  0.00  0.00  0.00
  WS02004413WS02003067    1.00   0.04  0.01  0.00  0.00  0.00  0.95  0.00  0.00  0.00
  WS02004412WS02004413    1.00   0.04  0.00  0.00  0.96  0.00  0.00  0.00  0.01  0.00
  WS02004410WS02004411    1.00   0.03  0.00  0.00  0.97  0.00  0.00  0.00  0.01  0.00
  WS02004409WS02004410    1.00   0.03  0.00  0.00  0.97  0.00  0.00  0.00  0.01  0.00
  WS02004407WS02004409    1.00   0.03  0.00  0.00  0.96  0.00  0.00  0.00  0.86  0.00
  WS02004406WS02004407    1.00   0.00  0.03  0.00  0.97  0.00  0.00  0.00  0.00  0.00
  WS02004405WS02004406    1.00   0.00  0.00  0.00  1.00  0.00  0.00  0.00  0.04  0.00
  WS02004404WS02004405    1.00   0.00  0.00  0.00  1.00  0.00  0.00  0.00  0.00  0.00
  WS02004403WS02004404    1.00   0.00  0.03  0.00  0.97  0.00  0.00  0.00  0.00  0.00
  WS02004402WS02004403    1.00   0.03  0.00  0.00  0.97  0.00  0.00  0.00  0.00  0.00
  WS02004139WS02001211    1.00   0.00  0.00  0.00  1.00  0.00  0.00  0.00  0.00  0.00
  WS02004138WS02004139    1.00   0.00  0.00  0.00  1.00  0.00  0.00  0.00  1.00  0.00
  WS02003067WS02003066    1.00   0.05  0.01  0.00  0.94  0.00  0.00  0.00  0.00  0.00
  WS02001213WS02003059    1.00   0.00  0.00  0.00  1.00  0.00  0.00  0.00  0.00  0.00
  WS02001212WS02001213    1.00   0.00  0.00  0.00  0.92  0.00  0.08  0.00  0.00  0.00
  WS02001211WS02001212    1.00   0.00  0.00  0.00  1.00  0.00  0.00  0.00  0.00  0.00
  WS02003072WS02003073    1.00   0.00  0.00  0.00  0.00  0.00  0.00  1.00  0.00  0.00
  WS02003069WS02003072    1.00   0.00  0.00  0.00  1.00  0.00  0.00  0.00  0.10  0.00
  WS02003060WS02003069    1.00   0.00  0.00  0.00  0.99  0.01  0.00  0.00  0.07  0.00
  WS02003059WS02003060    1.00   0.00  0.00  0.00  1.00  0.00  0.00  0.00  0.00  0.00
  HS02004901HS02004770    1.00   0.03  0.00  0.00  0.97  0.00  0.00  0.00  0.00  0.00
  HS02004876HS02004881    1.00   0.00  0.00  0.00  0.92  0.07  0.00  0.00  0.00  0.00
  HS02004870HS02004876    1.00   0.00  0.00  0.00  1.00  0.00  0.00  0.00  0.95  0.00
  HS02004842HS02004848    1.00   0.00  0.03  0.00  0.97  0.00  0.00  0.00  0.55  0.00
  HS02004837HS02004842    1.00   0.00  0.00  0.00  1.00  0.00  0.00  0.00  0.11  0.00
  HS02004830HS02004837    1.00   0.00  0.00  0.00  1.00  0.00  0.00  0.00  0.99  0.00
  HS02004824HS02004830    1.00   0.00  0.00  0.00  1.00  0.00  0.00  0.00  0.00  0.00
  HS02004817HS02004824    1.00   0.00  0.00  0.00  1.00  0.00  0.00  0.00  1.00  0.00
  HS02004770HS02004777    1.00   0.00  0.03  0.00  0.97  0.00  0.00  0.00  0.02  0.00
  HS02004799HS02004480    1.00   0.00  0.01  0.00  0.96  0.00  0.03  0.00  0.00  0.00
  HS02004792HS02004799    1.00   0.00  0.00  0.00  1.00  0.00  0.00  0.00  0.98  0.00
  HS02004788HS02004792    1.00   0.00  0.00  0.00  1.00  0.00  0.00  0.00  0.98  0.00
  HS02004785HS02004788    1.00   0.00  0.00  0.00  1.00  0.00  0.00  0.00  0.00  0.00
  HS02004777HS02004785    1.00   0.00  0.00  0.00  1.00  0.00  0.00  0.00  0.12  0.00
  HS02004480HS02004478    1.00   0.04  0.00  0.00  0.70  0.00  0.00  0.26  0.00  0.00
  HS02004479HS02004480    1.00   0.01  0.00  0.00  0.99  0.00  0.00  0.00  0.11  0.00
  HS02004862HS02004870    1.00   0.00  0.00  0.00  1.00  0.00  0.00  0.00  0.03  0.00
  HS02004848HS02004852    1.00   0.03  0.00  0.00  0.97  0.00  0.00  0.00  0.62  0.00
  HS02004856HS02004862    1.00   0.00  0.04  0.00  0.96  0.00  0.00  0.00  0.83  0.00
  HS02004852HS02004856    1.00   0.03  0.00  0.00  0.96  0.00  0.00  0.00  0.85  0.00
  HS02004802HS02004478    1.00   0.04  0.00  0.00  0.96  0.00  0.00  0.00  0.02  0.00
  HS02004478WS02006287    1.00   0.04  0.00  0.00  0.76  0.20  0.00  0.00  0.64  0.00
  HS02004817HS02004807    1.00   0.00  0.03  0.00  0.97  0.00  0.00  0.00  0.01  0.00
  HS02004807HS02004802    1.00   0.03  0.00  0.00  0.96  0.00  0.00  0.00  0.00  0.00
  YS02001759YS02001757    1.00   0.00  0.00  0.00  1.00  0.00  0.00  0.00  0.16  0.00
  YS02001762YS02001759    1.00   0.00  0.00  0.00  1.00  0.00  0.00  0.00  0.03  0.00
  YS02001765YS02001762    1.00   0.00  0.00  0.00  1.00  0.00  0.00  0.00  0.13  0.00
  YS02001770YS02001767    1.00   0.00  0.00  0.00  1.00  0.00  0.00  0.00  0.00  0.00
  YS02001774YS02001770    1.00   0.00  0.04  0.00  0.96  0.00  0.00  0.00  0.02  0.00
  YS02001779YS02001774    1.00   0.00  0.00  0.00  1.00  0.00  0.00  0.00  0.18  0.00
  YS02001649YS02001757    1.00   0.00  0.00  0.00  1.00  0.00  0.00  0.00  0.16  0.00
  YS02001767YS02001765    1.00   0.00  0.00  0.00  1.00  0.00  0.00  0.00  0.00  0.00
  YS02006561YS02001783    1.00   0.05  0.00  0.00  0.29  0.67  0.00  0.00  0.49  0.00
  YS02001783YS02001784    1.00   0.00  0.05  0.00  0.95  0.00  0.00  0.00  0.00  0.00
  YS02001784YS02001785    1.00   0.00  0.00  0.00  1.00  0.00  0.00  0.00  0.17  0.00
  YS02001788YS02001790    1.00   0.00  0.00  0.00  0.30  0.70  0.00  0.00  0.41  0.00
  YS02001790YS02001791    1.00   0.00  0.00  0.00  0.27  0.73  0.00  0.00  0.50  0.00
  YS02001791YS02001793    1.00   0.00  0.00  0.00  0.32  0.68  0.00  0.00  0.04  0.00
  YS02001910YS02001907    1.00   0.00  0.00  0.00  0.99  0.00  0.00  0.01  0.12  0.00
  YS02001786YS02001788    1.00   0.00  0.00  0.00  0.30  0.70  0.00  0.00  0.00  0.00
  YS02001915YS02001910    1.00   0.00  0.00  0.00  0.99  0.01  0.00  0.00  0.15  0.00
  YS02001918YS02001915    1.00   0.00  0.00  0.00  0.99  0.00  0.00  0.00  0.55  0.00
  YS02001923YS02001920    1.00   0.00  0.00  0.00  1.00  0.00  0.00  0.00  0.84  0.00
  YS02001926YS02001923    1.00   0.00  0.02  0.00  0.12  0.00  0.86  0.00  0.00  0.00
  YS02001929YS02001926    1.00   0.00  0.03  0.00  0.97  0.00  0.00  0.00  0.78  0.00
  YS02001920YS02001918    1.00   0.00  0.00  0.00  1.00  0.00  0.00  0.00  0.00  0.00
  YS02001629YS02163301    1.00   0.04  0.00  0.00  0.96  0.00  0.00  0.00  0.00  0.00
  YS02001619YS02001622    1.00   0.03  0.00  0.00  0.97  0.00  0.00  0.00  0.00  0.00
  YS02001622YS02001625    1.00   0.03  0.00  0.00  0.97  0.00  0.00  0.00  0.04  0.00
  YS02001625YS02001629    1.00   0.03  0.01  0.00  0.94  0.00  0.02  0.00  0.00  0.00
  YS02163301YS02001633    1.00   0.00  0.04  0.00  0.96  0.00  0.00  0.00  0.00  0.00
  YS02163601YS02164001    1.00   0.00  0.02  0.00  0.98  0.00  0.00  0.00  0.00  0.00
  YS02164001YS02001641    1.00   0.00  0.02  0.00  0.98  0.00  0.00  0.00  0.06  0.00
  YS02001641YS02001644    1.00   0.00  0.00  0.00  1.00  0.00  0.00  0.00  0.00  0.00
  YS02001647YS02001649    1.00   0.00  0.04  0.00  0.96  0.00  0.00  0.00  0.01  0.00
  YS02006553YS02006556    1.00   0.00  0.00  0.00  1.00  0.00  0.00  0.00  0.03  0.00
  YS02006556YS02006558    1.00   0.00  0.00  0.00  1.00  0.00  0.00  0.00  0.00  0.00
  YSB6556YSB1171          1.00   0.01  0.02  0.00  0.97  0.00  0.00  0.00  0.00  0.00
  YS02001907YS02006553    1.00   0.00  0.00  0.00  0.99  0.00  0.00  0.00  0.00  0.00
  YS02006558YS02006561    1.00   0.05  0.00  0.00  0.11  0.85  0.00  0.00  0.48  0.00
  YS02001633YS02163601    1.00   0.00  0.00  0.00  1.00  0.00  0.00  0.00  0.15  0.00
  YS02001644YS02001647    1.00   0.00  0.04  0.00  0.96  0.00  0.00  0.00  0.00  0.00
  YS02001745YS02001748    1.00   0.00  0.00  0.00  0.91  0.01  0.00  0.08  0.04  0.00
  YS02001748YS02001751    1.00   0.00  0.00  0.00  0.97  0.03  0.00  0.00  0.15  0.00
  YS02001751YS02001754    1.00   0.00  0.00  0.00  0.95  0.00  0.00  0.05  0.02  0.00
  YS02001754YS02001757    1.00   0.00  0.00  0.00  1.00  0.00  0.00  0.00  0.18  0.00
  YS02001882YS02001884    1.00   0.04  0.00  0.00  0.96  0.00  0.00  0.00  0.00  0.00
  YS02001884YS02001887    1.00   0.01  0.02  0.00  0.97  0.00  0.00  0.00  0.00  0.00
  YS02001890YS02001895    1.00   0.00  0.04  0.00  0.96  0.00  0.00  0.00  0.00  0.00
  YS02001895YS02001898    1.00   0.04  0.00  0.00  0.95  0.00  0.01  0.00  0.00  0.00
  YS02001898YS02001901    1.00   0.04  0.00  0.00  0.96  0.00  0.00  0.00  0.01  0.00
  YS02001901YS02001904    1.00   0.04  0.00  0.00  0.96  0.00  0.00  0.00  0.00  0.00
  YS02001904YS02001907    1.00   0.00  0.04  0.00  0.96  0.00  0.00  0.00  0.00  0.00
  YS02001887YS02001890    1.00   0.00  0.00  0.00  0.99  0.00  0.01  0.00  0.00  0.00
  YS02001652YS02001649    1.00   0.00  0.00  0.00  1.00  0.00  0.00  0.00  0.16  0.00
  YS02001655YS02001652    1.00   0.00  0.00  0.00  0.95  0.00  0.00  0.05  0.02  0.00
  YS02001658YS02001655    1.00   0.00  0.04  0.00  0.94  0.03  0.00  0.00  0.08  0.00
  YS02001661YS02001658    1.00   0.04  0.00  0.00  0.92  0.05  0.00  0.00  0.09  0.00
  YS02001664YS02001661    1.00   0.03  0.00  0.00  0.92  0.04  0.00  0.00  0.19  0.00
  YSB1154YSB6556          1.00   0.03  0.00  0.00  0.97  0.00  0.00  0.00  0.01  0.00
  YSB1174YSB1171          1.00   0.01  0.01  0.00  0.98  0.00  0.00  0.00  0.00  0.00
  YSB1171HS02004479       1.00   0.01  0.00  0.00  0.99  0.00  0.00  0.00  0.10  0.00
  HS02004881HS02006253    1.00   0.01  0.00  0.00  0.70  0.02  0.00  0.27  0.49  0.00
  YS02001793JiankangQianchi    1.00   0.00  0.00  0.00  0.65  0.35  0.00  0.00  0.43  0.00
  YS02001757CaochengTiaoxuchi    1.00   0.00  0.06  0.00  0.94  0.00  0.00  0.00  0.00  0.00
  WSF200WS02003060        1.00   0.00  0.00  0.00  0.99  0.00  0.00  0.00  0.37  0.00
  1                       1.00   0.00  0.00  0.00  0.00  1.00  0.00  0.00  0.49  0.00
  
  
  *************************
  Conduit Surcharge Summary
  *************************
  
  ----------------------------------------------------------------------------
                                                           Hours        Hours 
                         --------- Hours Full --------   Above Full   Capacity
  Conduit                Both Ends  Upstream  Dnstream   Normal Flow   Limited
  ----------------------------------------------------------------------------
  WS02006229WS02006228        3.98      4.04      3.98      4.54         3.98
  WS02006256WS02006235        5.47      5.47      6.78      4.66         0.01
  WS02006253WS02006251        1.32      1.32      1.37      0.01         0.01
  WS02006252WS02006251        0.92      0.92      1.43      0.91         0.01
  WS02006251WS02006249        1.33      1.33      1.41      0.38         0.33
  WS02006249WS02006248        1.37      1.37      1.41      3.25         0.01
  WS02006248WS02006247        1.41      1.41      1.60      0.01         0.01
  WS02006247WS02006245        1.60      1.64      1.60      3.72         1.55
  WS02006245WS02006243        1.64      1.64      1.78      0.01         0.09
  WS02006243WS02006242        1.85      1.85      2.74      0.01         0.01
  WS02006242WS02006240        2.59      2.59      2.97      1.14         0.01
  WS02006240WS02006239        2.67      2.67      2.93      0.25         0.31
  WS02006239WS02006238        3.28      3.28      3.46      0.47         0.38
  WS02006238WS02006235        3.45      3.45      3.56      0.01         0.01
  WS02006235WS02006234        3.06      3.06      3.39      5.36         0.01
  WS02006234WS02006232        3.27      3.27      3.72      0.68         0.62
  WS02006232WS02006231        1.73      1.73      3.72      0.82         0.01
  WS02006231WS02006230        1.27      1.27      1.84      5.55         0.01
  WS02006230WS02006229        4.28      4.43      4.28      5.80         4.28
[...]
  YS02001765YS02001762        5.84      5.84      5.87      0.01         0.01
  YS02001770YS02001767        5.81      5.81      5.81      0.19         0.77
  YS02001774YS02001770        5.80      5.80      5.86      0.01         0.01
  YS02001779YS02001774        5.68      5.68      5.86      0.01         0.01
  YS02001649YS02001757        5.88      5.88      5.98      0.01         0.01
  YS02001767YS02001765        5.81      5.81      5.84      0.01         0.01
  YS02006561YS02001783        0.57      0.57      1.10      0.01         0.01
  YS02001783YS02001784        1.04      1.10      1.04      1.35         0.99
  YS02001784YS02001785        0.79      1.04      0.79      2.36         0.79
  YS02001788YS02001790        0.56      0.56      1.11      0.01         0.01
  YS02001790YS02001791        1.11      1.11      1.25      0.90         0.58
  YS02001791YS02001793        1.25      1.25      1.95      0.01         0.01
  YS02001910YS02001907        1.06      1.06      1.75      0.01         0.01
  YS02001786YS02001788        0.55      0.79      0.56      1.96         0.55
  YS02001915YS02001910        0.81      0.81      1.06      0.01         0.01
  YS02001918YS02001915        0.57      0.57      0.81      0.01         0.01
  YS02001923YS02001920        0.42      0.42      0.60      0.01         0.01
  YS02001920YS02001918        0.57      0.57      0.60      0.01         0.01
  YS02001629YS02163301        5.80      5.80      5.81      0.01         0.01
  YS02001619YS02001622        5.47      5.47      5.50      0.01         0.01
  YS02001622YS02001625        5.50      5.50      5.76      0.01         0.01
  YS02001625YS02001629        5.48      5.48      5.76      0.01         0.01
  YS02163301YS02001633        5.81      5.81      5.84      0.01         0.01
  YS02163601YS02164001        5.83      5.83      5.87      0.01         0.01
  YS02164001YS02001641        5.83      5.83      5.85      0.01         0.03
  YS02001641YS02001644        5.85      5.85      5.85      1.53         1.54
  YS02001647YS02001649        5.75      5.75      5.88      0.01         0.01
  YS02006553YS02006556        1.34      1.34      1.85      0.01         0.01
  YS02006556YS02006558        1.51      1.51      1.95      0.01         0.01
  YS02001907YS02006553        2.40      2.40      2.63      0.01         0.01
  YS02006558YS02006561        0.71      1.29      0.71      2.24         0.71
  YS02001633YS02163601        5.83      5.83      5.87      0.01         0.01
  YS02001644YS02001647        5.75      5.75      5.85      0.01         0.01
  YS02001745YS02001748        0.01      0.01      5.30      0.01         0.01
  YS02001748YS02001751        5.35      5.35      5.49      0.01         0.01
  YS02001751YS02001754        5.49      5.49      5.69      0.01         0.01
  YS02001754YS02001757        5.74      5.74      5.98      0.01         0.01
  YS02001882YS02001884        0.84      0.84      0.87      0.01         0.01
  YS02001884YS02001887        0.94      0.94      0.97      0.01         0.01
  YS02001890YS02001895        0.80      0.80      1.09      0.01         0.01
  YS02001895YS02001898        0.78      0.78      0.80      0.01         0.01
  YS02001898YS02001901        0.81      0.81      0.92      0.01         0.01
  YS02001901YS02001904        0.89      0.89      0.92      0.01         0.01
  YS02001904YS02001907        0.89      0.89      1.88      0.01         0.01
  YS02001887YS02001890        1.00      1.00      1.04      0.01         0.01
  YS02001652YS02001649        5.76      5.76      5.88      0.01         0.01
  YS02001655YS02001652        5.51      5.51      5.73      0.01         0.01
  YS02001658YS02001655        5.34      5.34      5.51      0.01         0.01
  YS02001661YS02001658        0.25      0.25      5.34      0.01         0.01
  YS02001664YS02001661        0.01      0.01      1.10      0.01         0.01
  HS02004881HS02006253        0.01      0.01      0.85      0.01         0.01
  YS02001793JiankangQianchi        1.77      1.77      4.90      0.01         0.01
  YS02001757CaochengTiaoxuchi        5.21      5.21      5.98      0.01         0.01
  
  
  ***************
  Pumping Summary
  ***************
  
  ---------------------------------------------------------------------------------------------------------
                                                  Min       Avg       Max     Total     Power    % Time Off
                        Percent   Number of      Flow      Flow      Flow    Volume     Usage    Pump Curve
  Pump                 Utilized   Start-Ups       LPS       LPS       LPS  10^6 ltr     Kw-hr    Low   High
  ---------------------------------------------------------------------------------------------------------
  CC-Pump-1               57.44           2      0.00    170.11    200.00     2.640      2.24    0.0    0.0
  CC-Pump-2               19.15           4      0.00     93.96    200.00     0.600      0.76    0.0    0.0
  JK-Pump-1               65.96           5      0.00    223.71    300.00     3.961     56.21    0.0    0.0
  JK-Pump-2               57.46           6      0.00    413.86    683.00     6.603     91.19    0.0   95.7
  XR-Pump-1              100.00           1      0.00     93.38     95.00     2.565     26.25    0.0    0.0
  XR-Pump-2              100.00           1      0.00     92.79     95.00     2.508     25.13    0.0    0.0
  XR-Pump-3              100.00           1      0.00     92.79     95.00     2.508     25.13    0.0    0.0
  XR-Pump-4              100.00           1      0.00     92.79     95.00     2.508     25.13    0.0    0.0
  
  
  ***************************
  Link Pollutant Load Summary
  ***************************
  
  ------------------------------------------------------------------------------------------
                                 COD            SS            TN            TP         NH4-N
  Link                            kg            kg            kg            kg            kg
  ------------------------------------------------------------------------------------------
  WS02003066WSF200           799.556      1469.213        21.362         1.881        11.294
  WS02006287WS02006284       268.060       498.212         9.347         0.943         5.214
  WS02006284WS02006280       268.546       498.994         9.394         0.949         5.244
  WS02006280WS02006229       268.512       498.929         9.392         0.949         5.242
  WS02006229WS02006228       798.766      1468.372        20.876         1.811        10.974
  WS02006256WS02006235       230.587       419.667         5.161         0.403         2.618
  WS02006253WS02006251        51.156        98.545         1.181         0.091         0.592
  WS02006252WS02006251       274.817       499.128         5.736         0.413         2.820
  WS02006251WS02006249       319.980       586.886         6.798         0.496         3.355
  WS02006249WS02006248       305.621       560.412         6.495         0.474         3.207
  WS02006248WS02006247       305.795       560.750         6.501         0.475         3.209
  WS02006247WS02006245       305.611       560.409         6.498         0.474         3.209
  WS02006245WS02006243       305.077       559.515         6.482         0.473         3.200
  WS02006243WS02006242       305.053       559.480         6.483         0.473         3.200
  WS02006242WS02006240       304.500       558.473         6.458         0.470         3.186
  WS02006240WS02006239       304.815       558.882         6.474         0.472         3.195
  WS02006239WS02006238       305.807       560.290         6.526         0.478         3.225
  WS02006238WS02006235       306.510       561.294         6.559         0.481         3.245
  WS02006235WS02006234       532.163       972.804        11.545         0.868         5.765
  WS02006234WS02006232       532.105       972.656        11.548         0.868         5.767
  WS02006232WS02006231       531.842       972.195        11.540         0.868         5.763
  WS02006231WS02006230       531.599       971.810        11.533         0.867         5.759
  WS02006230WS02006229       530.972       970.702        11.515         0.865         5.749
  WS02006228WS02006109       798.381      1467.672        20.861         1.809        10.966
  WS02006116WS02004401       811.418      1490.428        21.651         1.904        11.443
  WS02006115WS02006116       812.328      1492.055        21.675         1.906        11.455
  WS02006113WS02006111       805.109      1478.234        21.585         1.901        11.421
  WS02006112WS02006115       813.375      1493.866        21.719         1.910        11.481
  WS02006111WS02006112       804.745      1477.577        21.576         1.900        11.416
  WS02006110WS02006113       805.578      1479.030        21.610         1.903        11.436
  WS02006109WS02006110       806.642      1480.819        21.673         1.911        11.474
  WS02004411WS02004412       803.467      1476.115        21.495         1.893        11.368
  WS02004401WS02004402       810.353      1488.569        21.612         1.900        11.420
  WS02004413WS02003067       800.272      1470.522        21.376         1.881        11.301
  WS02004412WS02004413       802.119      1473.724        21.455         1.890        11.346
  WS02004410WS02004411       804.555      1478.058        21.523         1.896        11.383
  WS02004409WS02004410       805.682      1480.056        21.558         1.899        11.401
  WS02004407WS02004409       806.543      1481.609        21.577         1.900        11.411
  WS02004406WS02004407       806.716      1481.956        21.572         1.900        11.407
  WS02004405WS02004406       808.516      1485.065        21.659         1.909        11.458
  WS02004404WS02004405       809.161      1486.308        21.641         1.906        11.444
  WS02004403WS02004404       808.474      1485.259        21.549         1.894        11.386
  WS02004402WS02004403       809.426      1486.924        21.585         1.897        11.406
  WS02004139WS02001211      1417.019      2334.297       117.881        14.436        72.797
  WS02004138WS02004139      1423.447      2344.922       118.397        14.499        73.115
  WS02003067WS02003066       799.816      1469.677        21.371         1.881        11.299
  WS02001213WS02003059      1449.530      2385.571       121.223        14.857        74.896
  WS02001212WS02001213      1458.681      2400.614       121.984        14.950        75.366
  WS02001211WS02001212      1461.032      2404.432       122.191        14.976        75.495
  WS02003072WS02003073      2348.025      4011.971       152.460        17.978        92.378
  WS02003069WS02003072      2353.478      4020.895       152.905        18.033        92.653
  WS02003060WS02003069      2356.310      4025.745       153.067        18.051        92.750
  WS02003059WS02003060      1446.011      2379.714       120.952        14.824        74.730
  HS02004901HS02004770        10.270        19.478         0.195         0.015         0.091
  HS02004876HS02004881        37.318        72.579         0.843         0.062         0.416
  HS02004870HS02004876        28.160        54.628         0.678         0.051         0.338
  HS02004842HS02004848         5.467        10.276         0.115         0.008         0.053
  HS02004837HS02004842        10.075        17.586         0.584         0.067         0.348
  HS02004830HS02004837        65.642       112.708         4.557         0.546         2.785
  HS02004824HS02004830        66.393       113.912         4.629         0.555         2.830
  HS02004817HS02004824        88.210       156.982         5.083         0.584         3.051
  HS02004770HS02004777        39.296        75.467         0.819         0.055         0.377
  HS02004799HS02004480       131.413       245.377         3.680         0.335         1.933
  HS02004792HS02004799       119.089       220.668         3.497         0.327         1.853
  HS02004788HS02004792        68.398       126.861         2.388         0.235         1.309
  HS02004785HS02004788        40.734        77.762         0.969         0.074         0.471
  HS02004777HS02004785        40.061        76.669         0.909         0.067         0.434
  HS02004480HS02004478       165.952       312.595         4.243         0.374         2.195
  HS02004479HS02004480        38.145        72.974         0.884         0.079         0.462
  HS02004862HS02004870        21.016        40.117         0.536         0.043         0.270
  HS02004848HS02004852         8.057        15.280         0.167         0.011         0.077
  HS02004856HS02004862        14.072        27.340         0.284         0.019         0.133
  HS02004852HS02004856         8.064        15.291         0.167         0.011         0.077
  HS02004802HS02004478       102.891       186.894         5.163         0.576         3.055
  HS02004478WS02006287       268.258       498.545         9.364         0.945         5.225
  HS02004817HS02004807        86.891       154.867         4.957         0.568         2.973
  HS02004807HS02004802       103.118       187.250         5.195         0.580         3.076
  YS02001759YS02001757       334.062       607.665         6.709         0.464         3.279
  YS02001762YS02001759       155.230       283.029         3.331         0.235         1.652
  YS02001765YS02001762       155.350       283.677         3.356         0.237         1.667
  YS02001770YS02001767       154.701       283.859         3.145         0.206         1.527
  YS02001774YS02001770       180.064       345.508         3.495         0.230         1.688
  YS02001779YS02001774       179.214       343.763         3.584         0.244         1.751
  YS02001649YS02001757       316.882       564.633         6.419         0.444         3.089
  YS02001767YS02001765       155.939       285.118         3.384         0.239         1.682
  YS02006561YS02001783       960.232      1763.249        20.280         1.520        10.115
  YS02001783YS02001784       960.098      1763.031        20.275         1.520        10.112
  YS02001784YS02001785       967.412      1774.747        20.988         1.609        10.558
  YS02001788YS02001790       967.951      1775.612        21.058         1.618        10.603
  YS02001790YS02001791       968.961      1777.270        21.158         1.631        10.665
  YS02001791YS02001793       968.862      1777.095        21.152         1.630        10.662
  YS02001910YS02001907       329.976       598.867         8.219         0.641         4.245
  YS02001786YS02001788       967.600      1775.068        21.015         1.613        10.576
  YS02001915YS02001910       330.081       599.033         8.176         0.634         4.216
  YS02001918YS02001915       156.488       271.427         4.574         0.427         2.493
  YS02001923YS02001920       136.700       239.885         2.624         0.182         1.272
  YS02001926YS02001923       136.436       239.497         2.587         0.178         1.248
  YS02001929YS02001926       136.225       239.149         2.556         0.174         1.229
  YS02001920YS02001918       156.566       271.657         4.544         0.423         2.472
  YS02001629YS02163301       103.712       183.786         2.175         0.140         1.014
  YS02001619YS02001622       146.399       262.938         3.031         0.197         1.414
  YS02001622YS02001625       145.260       261.143         3.003         0.195         1.401
  YS02001625YS02001629       104.793       185.574         2.199         0.142         1.025
  YS02163301YS02001633       103.443       183.334         2.168         0.140         1.011
  YS02163601YS02164001       362.263       646.618         7.120         0.503         3.405
  YS02164001YS02001641       361.785       645.813         7.101         0.501         3.395
  YS02001641YS02001644       362.034       646.159         7.100         0.501         3.393
  YS02001647YS02001649       371.827       670.150         7.446         0.517         3.564
  YS02006553YS02006556       681.761      1246.929        14.682         1.127         7.396
  YS02006556YS02006558       681.702      1246.806        14.650         1.122         7.375
  YSB6556YSB1171              21.951        42.195         0.451         0.038         0.229
  YS02001907YS02006553       681.883      1247.180        14.696         1.129         7.405
  YS02006558YS02006561       960.285      1763.345        20.280         1.520        10.115
  YS02001633YS02163601       362.944       647.669         7.100         0.499         3.389
  YS02001644YS02001647       377.238       679.933         7.530         0.523         3.602
  YS02001745YS02001748       209.304       385.231         4.658         0.321         2.317
  YS02001748YS02001751       208.042       382.688         4.750         0.337         2.383
  YS02001751YS02001754       207.060       381.080         4.731         0.336         2.374
  YS02001754YS02001757       207.813       382.210         4.894         0.358         2.480
  YS02001882YS02001884         2.808         4.839         0.057         0.004         0.028
  YS02001884YS02001887         6.739        11.919         0.132         0.010         0.066
  YS02001890YS02001895       389.416       720.558         7.188         0.539         3.508
  YS02001895YS02001898       389.235       720.306         7.182         0.539         3.504
  YS02001898YS02001901       388.993       719.886         7.176         0.538         3.501
  YS02001901YS02001904       388.839       719.663         7.183         0.539         3.506
  YS02001904YS02001907       389.047       719.974         7.237         0.547         3.541
  YS02001887YS02001890       390.216       721.754         7.243         0.546         3.541
  YS02001652YS02001649       151.103       276.629         3.081         0.222         1.445
  YS02001655YS02001652       151.765       277.695         3.098         0.223         1.453
  YS02001658YS02001655       151.358       277.026         3.014         0.212         1.398
  YS02001661YS02001658       155.906       285.108         3.107         0.218         1.441
  YS02001664YS02001661       176.854       320.238         3.567         0.249         1.652
  YSB1154YSB6556              21.532        41.528         0.402         0.032         0.198
  YSB1174YSB1171              14.654        28.290         0.298         0.024         0.149
  YSB1171HS02004479           38.103        72.907         0.887         0.079         0.465
  HS02004881HS02006253        42.328        82.650         0.930         0.068         0.457
  YS02001793JiankangQianchi       968.537      1776.526        21.108         1.624        10.634
  YS02001757CaochengTiaoxuchi       564.377      1015.306        11.895         0.849         5.845
  WSF200WS02003060           799.527      1469.086        21.384         1.884        11.309
  1                         2354.257      4021.213       153.292        18.086        92.907
  CC-Pump-1                  224.271       407.423         4.675         0.336         2.297
  CC-Pump-2                   50.440        91.531         1.053         0.076         0.518
  JK-Pump-1                  295.358       542.669         6.383         0.489         3.209
  JK-Pump-2                  568.889      1055.727        11.988         0.908         5.992
  XR-Pump-1                  364.537       600.147        30.421         3.727        18.792
  XR-Pump-2                  354.119       583.478        29.421         3.602        18.167
  XR-Pump-3                  354.119       583.478        29.421         3.602        18.167
  XR-Pump-4                  354.119       583.478        29.421         3.602        18.167
  

  Analysis begun on:  Thu Jun  3 09:54:11 2021
  Analysis ended on:  Thu Jun  3 09:54:15 2021
  Total elapsed time: 00:00:04