
  EPA STORM WATER MANAGEMENT MODEL - VERSION 5.1 (Build 5.3.0.dev0)
  --------------------------------------------------------------

  
  *********************************************************
  NOTE: The summary statistics displayed in this report are
  based on results found at every computational time step,  
  not just on results from each reporting time step.
  *********************************************************
  
  ****************
  Analysis Options
  ****************
  Flow Units ............... CMS
  Process Models:
    Rainfall/Runoff ........ YES
    RDII ................... NO
    Snowmelt ............... NO
    Groundwater ............ NO
    Flow Routing ........... YES
    Ponding Allowed ........ YES
    Water Quality .......... NO
  Infiltration Method ...... HORTON
  Flow Routing Method ...... DYNWAVE
  Surcharge Method ......... EXTRAN
  Starting Date ............ 08/28/2015 08:00:00
  Ending Date .............. 08/28/2015 15:50:00
  Antecedent Dry Days ...... 0.0
  Report Time Step ......... 00:01:00
  Wet Time Step ............ 00:01:00
  Dry Time Step ............ 00:01:00
  Routing Time Step ........ 5.00 sec
  Variable Time Step ....... YES
  Maximum Trials ........... 8
  Number of Threads ........ 1
  Head Tolerance ........... 0.001500 m
  
  
  **************************        Volume         Depth
  Runoff Quantity Continuity     hectare-m            mm
  **************************     ---------       -------
  Total Precipitation ......         0.925         5.135
  Evaporation Loss .........         0.000         0.000
  Infiltration Loss ........         0.000         0.000
  Surface Runoff ...........         0.903         5.013
  Final Storage ............         0.022         0.122
  Continuity Error (%) .....        -0.011
  
  
  **************************        Volume        Volume
  Flow Routing Continuity        hectare-m      10^6 ltr
  **************************     ---------     ---------
  Dry Weather Inflow .......         0.396         3.955
  Wet Weather Inflow .......         0.903         9.034
  Groundwater Inflow .......         0.000         0.000
  RDII Inflow ..............         0.000         0.000
  External Inflow ..........         0.000         0.000
  External Outflow .........         0.546         5.459
  Flooding Loss ............         0.021         0.209
  Evaporation Loss .........         0.000         0.000
  Exfiltration Loss ........         0.000         0.000
  Initial Stored Volume ....         0.000         0.000
  Final Stored Volume ......         0.579         5.787
  Continuity Error (%) .....        11.810
  
  
  *************************
  Highest Continuity Errors
  *************************
  Node T2 (38.02%)
  Node T4 (23.51%)
  Node T6 (22.89%)
  Node T5 (22.46%)
  Node T3 (20.15%)
  
  
  ***************************
  Time-Step Critical Elements
  ***************************
  None
  
  
  ********************************
  Highest Flow Instability Indexes
  ********************************
  All links are stable.
  
  
  *************************
  Routing Time Step Summary
  *************************
  Minimum Time Step           :     4.50 sec
  Average Time Step           :     5.00 sec
  Maximum Time Step           :     5.00 sec
  Percent in Steady State     :     0.00
  Average Iterations per Step :     2.03
  Percent Not Converging      :     0.07
  
  
  ***************************
  Subcatchment Runoff Summary
  ***************************
  
  ------------------------------------------------------------------------------------------------------------------------------
                            Total      Total      Total      Total     Imperv       Perv      Total       Total     Peak  Runoff
                           Precip      Runon       Evap      Infil     Runoff     Runoff     Runoff      Runoff   Runoff   Coeff
  Subcatchment                 mm         mm         mm         mm         mm         mm         mm    10^6 ltr      CMS
  ------------------------------------------------------------------------------------------------------------------------------
  SC01                       5.14       0.00       0.00       0.00       5.05       0.00       5.05        1.67     0.48   0.984
  SC02                       5.14       0.00       0.00       0.00       5.05       0.00       5.05        1.15     0.32   0.983
  SC03                       5.14       0.00       0.00       0.00       5.07       0.00       5.07        0.91     0.29   0.987
  SC04                       5.14       0.00       0.00       0.00       4.96       0.00       4.96        0.34     0.07   0.965
  SC05                       5.14       0.00       0.00       0.00       5.05       0.00       5.05        0.79     0.22   0.983
  SC06                       5.14       0.00       0.00       0.00       4.91       0.00       4.91        1.60     0.30   0.957
  SC07                       5.14       0.00       0.00       0.00       4.96       0.00       4.96        0.24     0.05   0.965
  SC08                       5.14       0.00       0.00       0.00       5.02       0.00       5.02        1.41     0.36   0.978
  SC09                       5.14       0.00       0.00       0.00       5.00       0.00       5.00        0.35     0.08   0.974
  SC010                      5.14       0.00       0.00       0.00       5.03       0.00       5.03        0.59     0.15   0.979
  
  
  ******************
  Node Depth Summary
  ******************
  
  ---------------------------------------------------------------------------------
                                 Average  Maximum  Maximum  Time of Max    Reported
                                   Depth    Depth      HGL   Occurrence   Max Depth
  Node                 Type       Meters   Meters   Meters  days hr:min      Meters
  ---------------------------------------------------------------------------------
  J1                   JUNCTION     0.07     0.16    34.16     0  01:39        0.16
  J3                   JUNCTION     0.10     0.12    18.12     0  05:20        0.12
  CSO7                 JUNCTION     0.10     0.21    34.21     0  01:42        0.21
  J5                   JUNCTION     0.06     0.12    32.12     0  01:43        0.12
  CSO9                 JUNCTION     0.11     0.60    40.60     0  01:37        0.59
  J8                   JUNCTION     0.10     0.21    36.21     0  01:42        0.21
  CSO8                 JUNCTION     0.13     0.98    32.98     0  01:34        0.89
  J10                  JUNCTION     0.09     0.25    29.25     0  01:41        0.24
  J13                  JUNCTION     0.06     0.16    29.16     0  01:39        0.16
  J15                  JUNCTION     0.16     0.28    15.28     0  01:42        0.28
  J16                  JUNCTION     0.06     0.17    30.17     0  01:38        0.17
  CSO10                JUNCTION     0.11     0.36    30.36     0  01:41        0.36
  J12                  JUNCTION     0.13     0.27    26.27     0  01:43        0.27
  J4                   JUNCTION     0.12     0.24    33.24     0  01:44        0.24
  J6                   JUNCTION     0.05     0.07    25.07     0  05:07        0.07
  J2                   JUNCTION     0.06     0.07    25.07     0  03:55        0.07
  J19                  JUNCTION     0.14     0.17     8.17     0  03:29        0.17
  J9                   JUNCTION     0.09     0.11    29.11     0  04:21        0.11
  J14                  JUNCTION     0.11     0.14    20.14     0  07:13        0.14
  J17                  JUNCTION     0.05     0.07    20.07     0  07:11        0.07
  J7                   JUNCTION     0.08     0.18    39.18     0  01:42        0.18
  J11                  JUNCTION     0.09     0.26    31.26     0  01:42        0.26
  J18                  JUNCTION     0.05     0.14    29.14     0  01:42        0.14
  Out_to_WWTP          OUTFALL      0.14     0.17     6.17     0  03:29        0.17
  T5                   STORAGE      2.62     3.65    30.65     0  03:53        3.65
  T4                   STORAGE      2.29     3.26    30.26     0  05:05        3.26
  T6                   STORAGE      3.57     5.00    36.00     0  03:09        5.00
  T3                   STORAGE      2.27     3.24    25.24     0  06:27        3.24
  T2                   STORAGE      2.25     3.24    24.24     0  06:52        3.24
  T1                   STORAGE      3.08     4.77    14.77     0  03:29        4.77
  
  
  *******************
  Node Inflow Summary
  *******************
  
  -------------------------------------------------------------------------------------------------
                                  Maximum  Maximum                  Lateral       Total        Flow
                                  Lateral    Total  Time of Max      Inflow      Inflow     Balance
                                   Inflow   Inflow   Occurrence      Volume      Volume       Error
  Node                 Type           CMS      CMS  days hr:min    10^6 ltr    10^6 ltr     Percent
  -------------------------------------------------------------------------------------------------
  J1                   JUNCTION     0.237    0.237     0  01:38        1.35        1.35       0.013
  J3                   JUNCTION     0.000    0.155     0  05:17           0         3.2       1.005
  CSO7                 JUNCTION     0.058    0.058     0  01:42       0.526       0.526       0.089
  J5                   JUNCTION     0.075    0.129     0  01:42        0.47       0.991       0.128
  CSO9                 JUNCTION     0.088    0.088     0  01:42       0.541       0.541       0.074
  J8                   JUNCTION     0.326    0.411     0  01:42        2.54        3.08       0.135
  CSO8                 JUNCTION     0.368    0.368     0  01:41         1.7         1.7       0.026
  J10                  JUNCTION     0.301    0.648     0  01:39         1.3        2.99       0.166
  J13                  JUNCTION     0.336    0.336     0  01:38        1.62        1.62      -0.326
  J15                  JUNCTION     0.000    0.707     0  01:40           0        6.49       1.114
  J16                  JUNCTION     0.496    0.496     0  01:38        2.22        2.22      -0.013
  CSO10                JUNCTION     0.157    0.157     0  01:41        0.73        0.73       0.055
  J12                  JUNCTION     0.000    0.680     0  01:41           0        4.64       0.445
  J4                   JUNCTION     0.000    0.058     0  01:42           0       0.525       0.711
  J6                   JUNCTION     0.000    0.023     0  05:05           0       0.445       0.489
  J2                   JUNCTION     0.000    0.034     0  03:53           0       0.748       0.606
  J19                  JUNCTION     0.000    0.264     0  03:29           0        5.47       0.193
  J9                   JUNCTION     0.000    0.075     0  03:09           0        1.67       1.038
  J14                  JUNCTION     0.000    0.099     0  06:27           0        2.02       0.318
  J17                  JUNCTION     0.000    0.027     0  07:00           0       0.379       1.449
  J7                   JUNCTION     0.000    0.088     0  01:42           0       0.541       0.589
  J11                  JUNCTION     0.000    0.368     0  01:41           0         1.7       0.365
  J18                  JUNCTION     0.000    0.157     0  01:41           0       0.729       0.116
  Out_to_WWTP          OUTFALL      0.000    0.264     0  03:29           0        5.46       0.000
  T5                   STORAGE      0.000    0.237     0  01:39           0        1.35      28.961
  T4                   STORAGE      0.000    0.128     0  01:43           0        0.99      30.741
  T6                   STORAGE      0.000    0.405     0  01:43           0        3.07      29.679
  T3                   STORAGE      0.000    0.669     0  01:43           0        4.62      25.233
  T2                   STORAGE      0.000    0.336     0  01:39           0        1.62      61.341
  T1                   STORAGE      0.000    0.693     0  01:43           0        6.42       8.852
  
  
  **********************
  Node Surcharge Summary
  **********************
  
  Surcharging occurs when water rises above the top of the highest conduit.
  ---------------------------------------------------------------------
                                               Max. Height   Min. Depth
                                   Hours       Above Crown    Below Rim
  Node                 Type      Surcharged         Meters       Meters
  ---------------------------------------------------------------------
  CSO9                 JUNCTION        0.14          0.283        1.399
  CSO8                 JUNCTION        0.18          0.526        1.021
  
  
  *********************
  Node Flooding Summary
  *********************
  
  Flooding refers to all water that overflows a node, whether it ponds or not.
  --------------------------------------------------------------------------
                                                             Total   Maximum
                                 Maximum   Time of Max       Flood    Ponded
                        Hours       Rate    Occurrence      Volume     Depth
  Node                 Flooded       CMS   days hr:min    10^6 ltr    Meters
  --------------------------------------------------------------------------
  T6                      1.62     0.125      0  03:09       0.209     0.000
  
  
  **********************
  Storage Volume Summary
  **********************
  
  --------------------------------------------------------------------------------------------------
                         Average     Avg  Evap Exfil       Maximum     Max    Time of Max    Maximum
                          Volume    Pcnt  Pcnt  Pcnt        Volume    Pcnt     Occurrence    Outflow
  Storage Unit           1000 m3    Full  Loss  Loss       1000 m3    Full    days hr:min        CMS
  --------------------------------------------------------------------------------------------------
  T5                       0.262      52     0     0         0.365      73       0  03:53      0.034
  T4                       0.229      46     0     0         0.326      65       0  05:05      0.023
  T6                       0.428      71     0     0         0.600     100       0  03:09      0.075
  T3                       1.183      45     0     0         1.684      65       0  06:27      0.099
  T2                       0.450      45     0     0         0.647      65       0  06:52      0.027
  T1                       0.431      62     0     0         0.668      95       0  03:29      0.264
  
  
  ***********************
  Outfall Loading Summary
  ***********************
  
  -----------------------------------------------------------
                         Flow       Avg       Max       Total
                         Freq      Flow      Flow      Volume
  Outfall Node           Pcnt       CMS       CMS    10^6 ltr
  -----------------------------------------------------------
  Out_to_WWTP           99.01     0.196     0.264       5.459
  -----------------------------------------------------------
  System                99.01     0.196     0.264       5.459
  
  
  ********************
  Link Flow Summary
  ********************
  
  -----------------------------------------------------------------------------
                                 Maximum  Time of Max   Maximum    Max/    Max/
                                  |Flow|   Occurrence   |Veloc|    Full    Full
  Link                 Type          CMS  days hr:min     m/sec    Flow   Depth
  -----------------------------------------------------------------------------
  C1                   CONDUIT     0.034     0  03:55      0.99    0.01    0.10
  C6                   CONDUIT     0.055     0  01:44      1.26    0.88    0.60
  C2                   CONDUIT     0.023     0  05:07      0.89    0.03    0.16
  C9                   CONDUIT     0.085     0  01:42      1.19    0.29    0.39
  C16                  CONDUIT     0.366     0  01:42      1.60    0.04    0.13
  C3                   CONDUIT     0.099     0  06:28      1.69    0.04    0.13
  C19                  CONDUIT     0.027     0  07:11      0.57    0.01    0.17
  C11                  CONDUIT     0.155     0  05:20      1.63    0.01    0.09
  C20                  CONDUIT     0.496     0  01:38      2.68    0.02    0.11
  C22                  CONDUIT     0.156     0  01:42      1.46    0.07    0.27
  C12                  CONDUIT     0.075     0  04:21      1.09    0.01    0.09
  C17                  CONDUIT     0.645     0  01:41      2.76    0.03    0.13
  C10                  CONDUIT     0.405     0  01:43      1.66    0.04    0.57
  C13                  CONDUIT     0.669     0  01:43      1.45    0.04    0.55
  C18                  CONDUIT     0.336     0  01:39      1.72    0.01    0.52
  C23                  CONDUIT     0.693     0  01:43      1.24    0.08    0.59
  C4                   CONDUIT     0.237     0  01:39      1.98    0.06    0.58
  C7                   CONDUIT     0.128     0  01:43      1.43    0.03    0.56
  C14                  CONDUIT     0.264     0  03:29      2.06    0.01    0.08
  C5                   CONDUIT     0.058     0  01:42      1.23    0.99    0.87
  C8                   CONDUIT     0.088     0  01:42      1.34    1.11    0.79
  C15                  CONDUIT     0.368     0  01:41      2.72    1.17    0.78
  C21                  CONDUIT     0.157     0  01:41      1.75    0.90    0.57
  V4                   ORIFICE     0.023     0  05:05                      0.35
  V5                   ORIFICE     0.034     0  03:53                      1.00
  V1                   ORIFICE     0.264     0  03:29                      1.00
  V6                   ORIFICE     0.075     0  03:09                      0.43
  V3                   ORIFICE     0.099     0  06:27                      0.65
  V2                   ORIFICE     0.027     0  07:00                      0.24
  
  
  ***************************
  Flow Classification Summary
  ***************************
  
  -------------------------------------------------------------------------------------
                      Adjusted    ---------- Fraction of Time in Flow Class ---------- 
                       /Actual         Up    Down  Sub   Sup   Up    Down  Norm  Inlet 
  Conduit               Length    Dry  Dry   Dry   Crit  Crit  Crit  Crit  Ltd   Ctrl  
  -------------------------------------------------------------------------------------
  C1                      1.00   0.00  0.00  0.00  0.01  0.99  0.00  0.00  0.94  0.00
  C6                      1.00   0.00  0.00  0.00  0.01  0.99  0.00  0.00  0.00  0.00
  C2                      1.00   0.00  0.00  0.00  0.71  0.29  0.00  0.00  0.95  0.00
  C9                      1.00   0.00  0.00  0.00  1.00  0.00  0.00  0.00  1.00  0.00
  C16                     1.00   0.00  0.00  0.00  0.60  0.40  0.00  0.00  0.49  0.00
  C3                      1.00   0.00  0.00  0.00  0.05  0.95  0.00  0.00  0.27  0.00
  C19                     1.00   0.00  0.00  0.00  1.00  0.00  0.00  0.00  1.00  0.00
  C11                     1.00   0.00  0.00  0.00  0.31  0.69  0.00  0.00  1.00  0.00
  C20                     1.00   0.00  0.00  0.00  0.57  0.43  0.00  0.00  0.98  0.00
  C22                     1.00   0.00  0.00  0.00  0.86  0.14  0.00  0.00  1.00  0.00
  C12                     1.00   0.00  0.00  0.00  0.46  0.54  0.00  0.00  0.95  0.00
  C17                     1.00   0.00  0.00  0.00  0.42  0.58  0.00  0.00  0.92  0.00
  C10                     1.00   0.00  0.00  0.00  0.96  0.04  0.00  0.00  0.97  0.00
  C13                     1.00   0.00  0.00  0.00  0.86  0.14  0.00  0.00  0.91  0.00
  C18                     1.00   0.00  0.00  0.00  0.94  0.06  0.00  0.00  0.97  0.00
  C23                     1.00   0.00  0.00  0.00  0.86  0.14  0.00  0.00  0.94  0.00
  C4                      1.00   0.00  0.00  0.00  0.96  0.04  0.00  0.00  0.98  0.00
  C7                      1.00   0.00  0.00  0.00  0.94  0.06  0.00  0.00  0.97  0.00
  C14                     1.00   0.00  0.00  0.00  0.00  0.99  0.00  0.00  0.32  0.00
  C5                      1.00   0.00  0.00  0.00  0.91  0.09  0.00  0.00  0.98  0.00
  C8                      1.00   0.00  0.00  0.00  0.05  0.95  0.00  0.00  0.00  0.00
  C15                     1.00   0.00  0.00  0.00  0.00  1.00  0.00  0.00  0.00  0.00
  C21                     1.00   0.00  0.00  0.00  0.00  1.00  0.00  0.00  0.00  0.00
  
  
  *************************
  Conduit Surcharge Summary
  *************************
  
  ----------------------------------------------------------------------------
                                                           Hours        Hours 
                         --------- Hours Full --------   Above Full   Capacity
  Conduit                Both Ends  Upstream  Dnstream   Normal Flow   Limited
  ----------------------------------------------------------------------------
  C10                         0.01      0.01      6.09      0.01         0.01
  C13                         0.01      0.01      5.35      0.01         0.01
  C18                         0.01      0.01      5.38      0.01         0.01
  C23                         0.01      0.01      6.16      0.01         0.01
  C4                          0.01      0.01      6.25      0.01         0.01
  C7                          0.01      0.01      6.03      0.01         0.01
  C8                          0.01      0.14      0.01      0.14         0.01
  C15                         0.01      0.18      0.01      0.23         0.01
  

  Analysis begun on:  Fri Sep  3 19:51:26 2021
  Analysis ended on:  Fri Sep  3 19:51:26 2021
  Total elapsed time: < 1 sec