
  EPA STORM WATER MANAGEMENT MODEL - VERSION 5.1 (Build 5.3.0.dev0)
  --------------------------------------------------------------

  
  *********************************************************
  NOTE: The summary statistics displayed in this report are
  based on results found at every computational time step,  
  not just on results from each reporting time step.
  *********************************************************
  
  ****************
  Analysis Options
  ****************
  Flow Units ............... CMS
  Process Models:
    Rainfall/Runoff ........ YES
    RDII ................... NO
    Snowmelt ............... NO
    Groundwater ............ NO
    Flow Routing ........... YES
    Ponding Allowed ........ YES
    Water Quality .......... NO
  Infiltration Method ...... HORTON
  Flow Routing Method ...... DYNWAVE
  Surcharge Method ......... EXTRAN
  Starting Date ............ 08/28/2015 08:00:00
  Ending Date .............. 08/28/2015 15:50:00
  Antecedent Dry Days ...... 0.0
  Report Time Step ......... 00:01:00
  Wet Time Step ............ 00:01:00
  Dry Time Step ............ 00:01:00
  Routing Time Step ........ 5.00 sec
  Variable Time Step ....... YES
  Maximum Trials ........... 8
  Number of Threads ........ 1
  Head Tolerance ........... 0.001500 m
  
  
  **************************        Volume         Depth
  Runoff Quantity Continuity     hectare-m            mm
  **************************     ---------       -------
  Total Precipitation ......         0.698         3.873
  Evaporation Loss .........         0.000         0.000
  Infiltration Loss ........         0.000         0.000
  Surface Runoff ...........         0.675         3.748
  Final Storage ............         0.023         0.125
  Continuity Error (%) .....        -0.008
  
  
  **************************        Volume        Volume
  Flow Routing Continuity        hectare-m      10^6 ltr
  **************************     ---------     ---------
  Dry Weather Inflow .......         0.396         3.955
  Wet Weather Inflow .......         0.675         6.754
  Groundwater Inflow .......         0.000         0.000
  RDII Inflow ..............         0.000         0.000
  External Inflow ..........         0.000         0.000
  External Outflow .........         0.452         4.525
  Flooding Loss ............         0.000         0.000
  Evaporation Loss .........         0.000         0.000
  Exfiltration Loss ........         0.000         0.000
  Initial Stored Volume ....         0.000         0.000
  Final Stored Volume ......         0.514         5.136
  Continuity Error (%) .....         9.787
  
  
  *************************
  Highest Continuity Errors
  *************************
  Node T2 (38.74%)
  Node T6 (25.13%)
  Node T5 (22.22%)
  Node T4 (22.05%)
  Node T3 (20.36%)
  
  
  ***************************
  Time-Step Critical Elements
  ***************************
  None
  
  
  ********************************
  Highest Flow Instability Indexes
  ********************************
  All links are stable.
  
  
  *************************
  Routing Time Step Summary
  *************************
  Minimum Time Step           :     4.50 sec
  Average Time Step           :     5.00 sec
  Maximum Time Step           :     5.00 sec
  Percent in Steady State     :     0.00
  Average Iterations per Step :     2.00
  Percent Not Converging      :     0.00
  
  
  ***************************
  Subcatchment Runoff Summary
  ***************************
  
  ------------------------------------------------------------------------------------------------------------------------------
                            Total      Total      Total      Total     Imperv       Perv      Total       Total     Peak  Runoff
                           Precip      Runon       Evap      Infil     Runoff     Runoff     Runoff      Runoff   Runoff   Coeff
  Subcatchment                 mm         mm         mm         mm         mm         mm         mm    10^6 ltr      CMS
  ------------------------------------------------------------------------------------------------------------------------------
  SC01                       3.87       0.00       0.00       0.00       3.79       0.00       3.79        1.25     0.25   0.978
  SC02                       3.87       0.00       0.00       0.00       3.78       0.00       3.78        0.86     0.17   0.977
  SC03                       3.87       0.00       0.00       0.00       3.80       0.00       3.80        0.68     0.14   0.982
  SC04                       3.87       0.00       0.00       0.00       3.69       0.00       3.69        0.25     0.05   0.953
  SC05                       3.87       0.00       0.00       0.00       3.78       0.00       3.78        0.59     0.11   0.977
  SC06                       3.87       0.00       0.00       0.00       3.64       0.00       3.64        1.19     0.20   0.941
  SC07                       3.87       0.00       0.00       0.00       3.69       0.00       3.69        0.18     0.03   0.953
  SC08                       3.87       0.00       0.00       0.00       3.76       0.00       3.76        1.05     0.20   0.971
  SC09                       3.87       0.00       0.00       0.00       3.74       0.00       3.74        0.26     0.05   0.965
  SC010                      3.87       0.00       0.00       0.00       3.76       0.00       3.76        0.44     0.08   0.972
  
  
  ******************
  Node Depth Summary
  ******************
  
  ---------------------------------------------------------------------------------
                                 Average  Maximum  Maximum  Time of Max    Reported
                                   Depth    Depth      HGL   Occurrence   Max Depth
  Node                 Type       Meters   Meters   Meters  days hr:min      Meters
  ---------------------------------------------------------------------------------
  J1                   JUNCTION     0.07     0.12    34.12     0  03:01        0.12
  J3                   JUNCTION     0.09     0.12    18.12     0  06:06        0.12
  CSO7                 JUNCTION     0.09     0.16    34.16     0  03:01        0.16
  J5                   JUNCTION     0.06     0.10    32.10     0  03:01        0.10
  CSO9                 JUNCTION     0.10     0.20    40.20     0  03:01        0.20
  J8                   JUNCTION     0.10     0.18    36.18     0  03:01        0.18
  CSO8                 JUNCTION     0.11     0.28    32.28     0  03:01        0.28
  J10                  JUNCTION     0.08     0.18    29.18     0  03:01        0.18
  J13                  JUNCTION     0.06     0.12    29.12     0  03:01        0.12
  J15                  JUNCTION     0.14     0.23    15.23     0  03:02        0.23
  J16                  JUNCTION     0.06     0.13    30.13     0  03:01        0.13
  CSO10                JUNCTION     0.10     0.24    30.24     0  03:01        0.24
  J12                  JUNCTION     0.12     0.21    26.21     0  03:03        0.21
  J4                   JUNCTION     0.11     0.19    33.19     0  03:03        0.19
  J6                   JUNCTION     0.05     0.06    25.06     0  05:43        0.06
  J2                   JUNCTION     0.06     0.07    25.07     0  04:38        0.07
  J19                  JUNCTION     0.13     0.16     8.16     0  03:31        0.16
  J9                   JUNCTION     0.09     0.11    29.11     0  05:04        0.11
  J14                  JUNCTION     0.10     0.13    20.13     0  07:50        0.13
  J17                  JUNCTION     0.04     0.06    20.06     0  03:30        0.06
  J7                   JUNCTION     0.07     0.15    39.15     0  03:02        0.15
  J11                  JUNCTION     0.09     0.20    31.20     0  03:01        0.20
  J18                  JUNCTION     0.05     0.11    29.11     0  03:02        0.11
  Out_to_WWTP          OUTFALL      0.13     0.16     6.16     0  03:31        0.16
  T5                   STORAGE      1.99     2.96    29.96     0  04:36        2.96
  T4                   STORAGE      1.74     2.68    29.68     0  05:41        2.68
  T6                   STORAGE      2.87     4.49    35.49     0  05:01        4.49
  T3                   STORAGE      1.71     2.66    24.66     0  07:27        2.66
  T2                   STORAGE      1.65     2.58    23.58     0  07:50        2.58
  T1                   STORAGE      2.19     3.67    13.67     0  03:31        3.67
  
  
  *******************
  Node Inflow Summary
  *******************
  
  -------------------------------------------------------------------------------------------------
                                  Maximum  Maximum                  Lateral       Total        Flow
                                  Lateral    Total  Time of Max      Inflow      Inflow     Balance
                                   Inflow   Inflow   Occurrence      Volume      Volume       Error
  Node                 Type           CMS      CMS  days hr:min    10^6 ltr    10^6 ltr     Percent
  -------------------------------------------------------------------------------------------------
  J1                   JUNCTION     0.138    0.138     0  03:01        1.15        1.15       0.057
  J3                   JUNCTION     0.000    0.140     0  06:03           0        2.72       1.144
  CSO7                 JUNCTION     0.043    0.043     0  03:01       0.466       0.466       0.096
  J5                   JUNCTION     0.050    0.091     0  03:01       0.382       0.844       0.195
  CSO9                 JUNCTION     0.056    0.056     0  03:01       0.454       0.454       0.096
  J8                   JUNCTION     0.241    0.294     0  03:01        2.13        2.58       0.210
  CSO8                 JUNCTION     0.210    0.210     0  03:01        1.34        1.34       0.040
  J10                  JUNCTION     0.154    0.357     0  03:01        1.07        2.41       0.229
  J13                  JUNCTION     0.187    0.187     0  03:01        1.33        1.33      -0.212
  J15                  JUNCTION     0.000    0.453     0  03:01           0        5.37       1.262
  J16                  JUNCTION     0.268    0.268     0  03:01         1.8         1.8       0.037
  CSO10                JUNCTION     0.090    0.090     0  03:01       0.581       0.581       0.073
  J12                  JUNCTION     0.000    0.408     0  03:01           0        3.86       0.659
  J4                   JUNCTION     0.000    0.043     0  03:01           0       0.465       0.809
  J6                   JUNCTION     0.000    0.021     0  05:41           0        0.41       0.780
  J2                   JUNCTION     0.000    0.030     0  04:36           0       0.647       0.659
  J19                  JUNCTION     0.000    0.231     0  03:31           0        4.53       0.214
  J9                   JUNCTION     0.000    0.071     0  05:01           0        1.47       1.101
  J14                  JUNCTION     0.000    0.090     0  07:27           0        1.67       0.355
  J17                  JUNCTION     0.000    0.021     0  03:30           0         0.3       0.977
  J7                   JUNCTION     0.000    0.055     0  03:01           0       0.454       0.710
  J11                  JUNCTION     0.000    0.209     0  03:01           0        1.34       0.435
  J18                  JUNCTION     0.000    0.089     0  03:01           0       0.581       0.190
  Out_to_WWTP          OUTFALL      0.000    0.231     0  03:31           0        4.52       0.000
  T5                   STORAGE      0.000    0.136     0  03:01           0        1.15      28.568
  T4                   STORAGE      0.000    0.090     0  03:01           0       0.842      28.292
  T6                   STORAGE      0.000    0.289     0  03:01           0        2.57      33.571
  T3                   STORAGE      0.000    0.401     0  03:03           0        3.84      25.559
  T2                   STORAGE      0.000    0.184     0  03:01           0        1.33      63.247
  T1                   STORAGE      0.000    0.446     0  03:02           0         5.3       8.714
  
  
  **********************
  Node Surcharge Summary
  **********************
  
  No nodes were surcharged.
  
  
  *********************
  Node Flooding Summary
  *********************
  
  No nodes were flooded.
  
  
  **********************
  Storage Volume Summary
  **********************
  
  --------------------------------------------------------------------------------------------------
                         Average     Avg  Evap Exfil       Maximum     Max    Time of Max    Maximum
                          Volume    Pcnt  Pcnt  Pcnt        Volume    Pcnt     Occurrence    Outflow
  Storage Unit           1000 m3    Full  Loss  Loss       1000 m3    Full    days hr:min        CMS
  --------------------------------------------------------------------------------------------------
  T5                       0.199      40     0     0         0.296      59       0  04:36      0.030
  T4                       0.174      35     0     0         0.268      54       0  05:41      0.021
  T6                       0.344      57     0     0         0.538      90       0  05:01      0.071
  T3                       0.889      34     0     0         1.384      53       0  07:27      0.090
  T2                       0.329      33     0     0         0.516      52       0  07:50      0.021
  T1                       0.306      44     0     0         0.514      73       0  03:31      0.231
  
  
  ***********************
  Outfall Loading Summary
  ***********************
  
  -----------------------------------------------------------
                         Flow       Avg       Max       Total
                         Freq      Flow      Flow      Volume
  Outfall Node           Pcnt       CMS       CMS    10^6 ltr
  -----------------------------------------------------------
  Out_to_WWTP           99.01     0.162     0.231       4.525
  -----------------------------------------------------------
  System                99.01     0.162     0.231       4.525
  
  
  ********************
  Link Flow Summary
  ********************
  
  -----------------------------------------------------------------------------
                                 Maximum  Time of Max   Maximum    Max/    Max/
                                  |Flow|   Occurrence   |Veloc|    Full    Full
  Link                 Type          CMS  days hr:min     m/sec    Flow   Depth
  -----------------------------------------------------------------------------
  C1                   CONDUIT     0.030     0  04:38      0.98    0.01    0.09
  C6                   CONDUIT     0.041     0  03:03      1.20    0.65    0.49
  C2                   CONDUIT     0.021     0  05:43      0.87    0.02    0.15
  C9                   CONDUIT     0.054     0  03:02      0.98    0.18    0.32
  C16                  CONDUIT     0.205     0  03:02      1.36    0.02    0.09
  C3                   CONDUIT     0.090     0  07:28      1.61    0.03    0.12
  C19                  CONDUIT     0.021     0  03:30      0.43    0.01    0.14
  C11                  CONDUIT     0.140     0  06:06      1.58    0.01    0.08
  C20                  CONDUIT     0.265     0  03:01      1.93    0.01    0.09
  C22                  CONDUIT     0.088     0  03:02      1.15    0.04    0.21
  C12                  CONDUIT     0.071     0  05:04      1.07    0.01    0.08
  C17                  CONDUIT     0.352     0  03:01      2.20    0.02    0.10
  C10                  CONDUIT     0.289     0  03:01      1.66    0.03    0.56
  C13                  CONDUIT     0.401     0  03:03      1.45    0.02    0.54
  C18                  CONDUIT     0.184     0  03:01      1.72    0.01    0.52
  C23                  CONDUIT     0.446     0  03:02      1.24    0.05    0.58
  C4                   CONDUIT     0.136     0  03:01      1.98    0.03    0.56
  C7                   CONDUIT     0.090     0  03:01      1.43    0.02    0.55
  C14                  CONDUIT     0.231     0  03:31      1.99    0.01    0.08
  C5                   CONDUIT     0.043     0  03:01      1.22    0.73    0.69
  C8                   CONDUIT     0.055     0  03:01      1.24    0.70    0.55
  C15                  CONDUIT     0.209     0  03:01      2.43    0.67    0.53
  C21                  CONDUIT     0.089     0  03:01      1.57    0.51    0.40
  V4                   ORIFICE     0.021     0  05:41                      0.35
  V5                   ORIFICE     0.030     0  04:36                      1.00
  V1                   ORIFICE     0.231     0  03:31                      1.00
  V6                   ORIFICE     0.071     0  05:01                      0.43
  V3                   ORIFICE     0.090     0  07:27                      0.65
  V2                   ORIFICE     0.021     0  03:30                      0.24
  
  
  ***************************
  Flow Classification Summary
  ***************************
  
  -------------------------------------------------------------------------------------
                      Adjusted    ---------- Fraction of Time in Flow Class ---------- 
                       /Actual         Up    Down  Sub   Sup   Up    Down  Norm  Inlet 
  Conduit               Length    Dry  Dry   Dry   Crit  Crit  Crit  Crit  Ltd   Ctrl  
  -------------------------------------------------------------------------------------
  C1                      1.00   0.00  0.00  0.00  0.17  0.83  0.00  0.00  0.94  0.00
  C6                      1.00   0.00  0.00  0.00  0.01  0.99  0.00  0.00  0.00  0.00
  C2                      1.00   0.00  0.00  0.00  0.65  0.35  0.00  0.00  0.95  0.00
  C9                      1.00   0.00  0.00  0.00  1.00  0.00  0.00  0.00  1.00  0.00
  C16                     1.00   0.00  0.00  0.00  0.61  0.39  0.00  0.00  0.51  0.00
  C3                      1.00   0.00  0.00  0.00  0.05  0.95  0.00  0.00  0.33  0.00
  C19                     1.00   0.00  0.00  0.00  1.00  0.00  0.00  0.00  1.00  0.00
  C11                     1.00   0.00  0.00  0.00  0.35  0.64  0.00  0.00  1.00  0.00
  C20                     1.00   0.00  0.00  0.00  0.53  0.47  0.00  0.00  0.98  0.00
  C22                     1.00   0.00  0.00  0.00  0.81  0.19  0.00  0.00  1.00  0.00
  C12                     1.00   0.00  0.00  0.00  0.48  0.52  0.00  0.00  1.00  0.00
  C17                     1.00   0.00  0.00  0.00  0.38  0.62  0.00  0.00  0.97  0.00
  C10                     1.00   0.00  0.00  0.00  0.96  0.04  0.00  0.00  0.97  0.00
  C13                     1.00   0.00  0.00  0.00  0.88  0.12  0.00  0.00  0.91  0.00
  C18                     1.00   0.00  0.00  0.00  0.94  0.06  0.00  0.00  0.97  0.00
  C23                     1.00   0.00  0.00  0.00  0.87  0.13  0.00  0.00  0.94  0.00
  C4                      1.00   0.00  0.00  0.00  0.96  0.04  0.00  0.00  0.98  0.00
  C7                      1.00   0.00  0.00  0.00  0.94  0.06  0.00  0.00  0.97  0.00
  C14                     1.00   0.00  0.00  0.00  0.00  0.99  0.00  0.00  0.39  0.00
  C5                      1.00   0.00  0.00  0.00  0.88  0.12  0.00  0.00  0.98  0.00
  C8                      1.00   0.00  0.00  0.00  0.00  1.00  0.00  0.00  0.00  0.00
  C15                     1.00   0.00  0.00  0.00  0.00  1.00  0.00  0.00  0.00  0.00
  C21                     1.00   0.00  0.00  0.00  0.00  1.00  0.00  0.00  0.00  0.00
  
  
  *************************
  Conduit Surcharge Summary
  *************************
  
  ----------------------------------------------------------------------------
                                                           Hours        Hours 
                         --------- Hours Full --------   Above Full   Capacity
  Conduit                Both Ends  Upstream  Dnstream   Normal Flow   Limited
  ----------------------------------------------------------------------------
  C10                         0.01      0.01      5.39      0.01         0.01
  C13                         0.01      0.01      4.54      0.01         0.01
  C18                         0.01      0.01      4.45      0.01         0.01
  C23                         0.01      0.01      5.42      0.01         0.01
  C4                          0.01      0.01      5.66      0.01         0.01
  C7                          0.01      0.01      5.33      0.01         0.01
  

  Analysis begun on:  Fri Sep  3 19:35:02 2021
  Analysis ended on:  Fri Sep  3 19:35:02 2021
  Total elapsed time: < 1 sec