
  EPA STORM WATER MANAGEMENT MODEL - VERSION 5.1 (Build 5.3.0.dev0)
  --------------------------------------------------------------

  
  *********************************************************
  NOTE: The summary statistics displayed in this report are
  based on results found at every computational time step,  
  not just on results from each reporting time step.
  *********************************************************
  
  ****************
  Analysis Options
  ****************
  Flow Units ............... CMS
  Process Models:
    Rainfall/Runoff ........ YES
    RDII ................... NO
    Snowmelt ............... NO
    Groundwater ............ NO
    Flow Routing ........... YES
    Ponding Allowed ........ YES
    Water Quality .......... NO
  Infiltration Method ...... HORTON
  Flow Routing Method ...... DYNWAVE
  Surcharge Method ......... EXTRAN
  Starting Date ............ 08/28/2015 08:00:00
  Ending Date .............. 08/28/2015 15:50:00
  Antecedent Dry Days ...... 0.0
  Report Time Step ......... 00:01:00
  Wet Time Step ............ 00:01:00
  Dry Time Step ............ 00:01:00
  Routing Time Step ........ 5.00 sec
  Variable Time Step ....... YES
  Maximum Trials ........... 8
  Number of Threads ........ 1
  Head Tolerance ........... 0.001500 m
  
  
  **************************        Volume         Depth
  Runoff Quantity Continuity     hectare-m            mm
  **************************     ---------       -------
  Total Precipitation ......         1.350         7.493
  Evaporation Loss .........         0.000         0.000
  Infiltration Loss ........         0.000         0.000
  Surface Runoff ...........         1.326         7.361
  Final Storage ............         0.024         0.132
  Continuity Error (%) .....        -0.009
  
  
  **************************        Volume        Volume
  Flow Routing Continuity        hectare-m      10^6 ltr
  **************************     ---------     ---------
  Dry Weather Inflow .......         0.396         3.955
  Wet Weather Inflow .......         1.326        13.264
  Groundwater Inflow .......         0.000         0.000
  RDII Inflow ..............         0.000         0.000
  External Inflow ..........         0.000         0.000
  External Outflow .........         0.516         5.159
  Flooding Loss ............         0.229         2.290
  Evaporation Loss .........         0.000         0.000
  Exfiltration Loss ........         0.000         0.000
  Initial Stored Volume ....         0.000         0.000
  Final Stored Volume ......         0.755         7.550
  Continuity Error (%) .....        12.897
  
  
  *************************
  Highest Continuity Errors
  *************************
  Node T2 (36.31%)
  Node T4 (28.18%)
  Node T3 (26.16%)
  Node T5 (23.41%)
  Node T6 (17.66%)
  
  
  ***************************
  Time-Step Critical Elements
  ***************************
  None
  
  
  ********************************
  Highest Flow Instability Indexes
  ********************************
  Link C13 (1)
  
  
  *************************
  Routing Time Step Summary
  *************************
  Minimum Time Step           :     4.50 sec
  Average Time Step           :     5.00 sec
  Maximum Time Step           :     5.00 sec
  Percent in Steady State     :     0.00
  Average Iterations per Step :     2.17
  Percent Not Converging      :     0.64
  
  
  ***************************
  Subcatchment Runoff Summary
  ***************************
  
  ------------------------------------------------------------------------------------------------------------------------------
                            Total      Total      Total      Total     Imperv       Perv      Total       Total     Peak  Runoff
                           Precip      Runon       Evap      Infil     Runoff     Runoff     Runoff      Runoff   Runoff   Coeff
  Subcatchment                 mm         mm         mm         mm         mm         mm         mm    10^6 ltr      CMS
  ------------------------------------------------------------------------------------------------------------------------------
  SC01                       7.49       0.00       0.00       0.00       7.41       0.00       7.41        2.44     0.75   0.988
  SC02                       7.49       0.00       0.00       0.00       7.40       0.00       7.40        1.68     0.51   0.988
  SC03                       7.49       0.00       0.00       0.00       7.42       0.00       7.42        1.34     0.43   0.991
  SC04                       7.49       0.00       0.00       0.00       7.30       0.00       7.30        0.50     0.13   0.974
  SC05                       7.49       0.00       0.00       0.00       7.40       0.00       7.40        1.15     0.35   0.988
  SC06                       7.49       0.00       0.00       0.00       7.24       0.00       7.24        2.36     0.57   0.967
  SC07                       7.49       0.00       0.00       0.00       7.30       0.00       7.30        0.35     0.09   0.974
  SC08                       7.49       0.00       0.00       0.00       7.37       0.00       7.37        2.06     0.59   0.984
  SC09                       7.49       0.00       0.00       0.00       7.35       0.00       7.35        0.51     0.14   0.981
  SC010                      7.49       0.00       0.00       0.00       7.38       0.00       7.38        0.87     0.25   0.985
  
  
  ******************
  Node Depth Summary
  ******************
  
  ---------------------------------------------------------------------------------
                                 Average  Maximum  Maximum  Time of Max    Reported
                                   Depth    Depth      HGL   Occurrence   Max Depth
  Node                 Type       Meters   Meters   Meters  days hr:min      Meters
  ---------------------------------------------------------------------------------
  J1                   JUNCTION     0.08     0.20    34.20     0  03:01        0.20
  J3                   JUNCTION     0.09     0.11    18.11     0  05:05        0.11
  CSO7                 JUNCTION     0.16     1.20    35.20     0  02:48        1.20
  J5                   JUNCTION     0.07     0.15    32.15     0  03:01        0.15
  CSO9                 JUNCTION     0.18     2.00    42.00     0  02:57        2.00
  J8                   JUNCTION     0.11     0.28    36.28     0  03:01        0.28
  CSO8                 JUNCTION     0.20     2.00    34.00     0  02:55        2.00
  J10                  JUNCTION     0.10     0.29    29.29     0  03:01        0.29
  J13                  JUNCTION     0.07     0.19    29.19     0  03:01        0.19
  J15                  JUNCTION     0.16     0.34    15.34     0  03:02        0.34
  J16                  JUNCTION     0.07     0.21    30.21     0  03:01        0.21
  CSO10                JUNCTION     0.14     1.00    31.00     0  02:54        1.00
  J12                  JUNCTION     0.37     0.79    26.79     0  07:49        0.79
  J4                   JUNCTION     0.15     1.21    34.21     0  02:48        0.81
  J6                   JUNCTION     0.05     0.06    25.06     0  05:06        0.06
  J2                   JUNCTION     0.06     0.08    25.08     0  03:58        0.08
  J19                  JUNCTION     0.13     0.17     8.17     0  02:55        0.17
  J9                   JUNCTION     0.09     0.11    29.11     0  04:28        0.11
  J14                  JUNCTION     0.08     0.10    20.10     0  02:30        0.10
  J17                  JUNCTION     0.06     0.07    20.07     0  02:41        0.07
  J7                   JUNCTION     0.09     0.23    39.23     0  03:03        0.23
  J11                  JUNCTION     0.10     0.30    31.30     0  02:59        0.30
  J18                  JUNCTION     0.06     0.16    29.16     0  03:03        0.16
  Out_to_WWTP          OUTFALL      0.13     0.17     6.17     0  02:54        0.17
  T5                   STORAGE      3.28     5.00    32.00     0  03:12        5.00
  T4                   STORAGE      3.27     5.00    32.00     0  04:23        5.00
  T6                   STORAGE      3.45     5.00    36.00     0  02:54        5.00
  T3                   STORAGE      2.97     4.78    26.78     0  07:45        4.78
  T2                   STORAGE      2.84     4.28    25.28     0  05:01        4.28
  T1                   STORAGE      2.84     5.00    15.00     0  02:54        5.00
  
  
  *******************
  Node Inflow Summary
  *******************
  
  -------------------------------------------------------------------------------------------------
                                  Maximum  Maximum                  Lateral       Total        Flow
                                  Lateral    Total  Time of Max      Inflow      Inflow     Balance
                                   Inflow   Inflow   Occurrence      Volume      Volume       Error
  Node                 Type           CMS      CMS  days hr:min    10^6 ltr    10^6 ltr     Percent
  -------------------------------------------------------------------------------------------------
  J1                   JUNCTION     0.369    0.369     0  03:01        1.72        1.72       0.028
  J3                   JUNCTION     0.000    0.113     0  05:03           0        2.39       1.118
  CSO7                 JUNCTION     0.100    0.100     0  03:01       0.637       0.637       0.071
  J5                   JUNCTION     0.133    0.204     0  03:01       0.631        1.25       0.139
  CSO9                 JUNCTION     0.146    0.146     0  03:01       0.703       0.703       0.069
  J8                   JUNCTION     0.607    0.731     0  03:01         3.3        3.99       0.140
  CSO8                 JUNCTION     0.596    0.596     0  03:01        2.36        2.36       0.022
  J10                  JUNCTION     0.449    0.938     0  03:01        1.72        4.05       0.090
  J13                  JUNCTION     0.524    0.524     0  03:01        2.15        2.15      -0.171
  J15                  JUNCTION     0.000    1.069     0  03:01           0        6.91       0.922
  J16                  JUNCTION     0.768    0.768     0  03:01           3           3      -0.002
  CSO10                JUNCTION     0.254    0.254     0  03:01        1.01        1.01       0.034
  J12                  JUNCTION     0.000    0.986     0  03:01           0        5.67      11.810
  J4                   JUNCTION     0.000    0.071     0  03:01           0       0.622       0.542
  J6                   JUNCTION     0.000    0.020     0  04:23           0       0.381       0.889
  J2                   JUNCTION     0.000    0.039     0  03:12           0        0.82       0.622
  J19                  JUNCTION     0.000    0.271     0  02:54           0        5.17       0.189
  J9                   JUNCTION     0.000    0.079     0  03:00           0        1.58       1.149
  J14                  JUNCTION     0.000    0.056     0  07:45           0         1.2       0.345
  J17                  JUNCTION     0.000    0.031     0  02:40           0       0.559       0.969
  J7                   JUNCTION     0.000    0.127     0  03:03           0         0.7       0.451
  J11                  JUNCTION     0.000    0.486     0  02:59           0        2.33       0.266
  J18                  JUNCTION     0.000    0.202     0  03:03           0       0.993       0.103
  Out_to_WWTP          OUTFALL      0.000    0.271     0  02:56           0        5.16       0.000
  T5                   STORAGE      0.000    0.362     0  03:01           0        1.72      30.571
  T4                   STORAGE      0.000    0.201     0  03:01           0        1.25      39.230
  T6                   STORAGE      0.000    0.715     0  03:01           0        3.99      21.445
  T3                   STORAGE      0.000    0.952     0  03:03           0        5.07      35.431
  T2                   STORAGE      0.000    0.514     0  03:01           0        2.15      57.002
  T1                   STORAGE      0.000    1.010     0  03:02           0        6.84       6.668
  
  
  **********************
  Node Surcharge Summary
  **********************
  
  Surcharging occurs when water rises above the top of the highest conduit.
  ---------------------------------------------------------------------
                                               Max. Height   Min. Depth
                                   Hours       Above Crown    Below Rim
  Node                 Type      Surcharged         Meters       Meters
  ---------------------------------------------------------------------
  CSO7                 JUNCTION        0.51          0.945        0.000
  CSO9                 JUNCTION        0.54          1.682        0.000
  CSO8                 JUNCTION        0.48          1.547        0.000
  CSO10                JUNCTION        0.25          0.560        0.000
  J4                   JUNCTION        0.48          0.914        0.786
  
  
  *********************
  Node Flooding Summary
  *********************
  
  Flooding refers to all water that overflows a node, whether it ponds or not.
  --------------------------------------------------------------------------
                                                             Total   Maximum
                                 Maximum   Time of Max       Flood    Ponded
                        Hours       Rate    Occurrence      Volume     Depth
  Node                 Flooded       CMS   days hr:min    10^6 ltr    Meters
  --------------------------------------------------------------------------
  CSO7                    0.33     0.029      0  03:01       0.015     0.000
  CSO9                    0.10     0.019      0  03:01       0.003     0.000
  CSO8                    0.14     0.110      0  03:01       0.025     0.000
  CSO10                   0.15     0.051      0  03:01       0.013     0.000
  T5                      0.79     0.120      0  03:12       0.092     0.000
  T4                      1.64     0.015      0  04:23       0.034     0.000
  T6                      2.14     0.636      0  03:01       1.207     0.000
  T1                      0.79     0.740      0  03:02       0.902     0.000
  
  
  **********************
  Storage Volume Summary
  **********************
  
  --------------------------------------------------------------------------------------------------
                         Average     Avg  Evap Exfil       Maximum     Max    Time of Max    Maximum
                          Volume    Pcnt  Pcnt  Pcnt        Volume    Pcnt     Occurrence    Outflow
  Storage Unit           1000 m3    Full  Loss  Loss       1000 m3    Full    days hr:min        CMS
  --------------------------------------------------------------------------------------------------
  T5                       0.328      66     0     0         0.500     100       0  03:12      0.039
  T4                       0.327      65     0     0         0.500     100       0  04:23      0.020
  T6                       0.414      69     0     0         0.600     100       0  02:54      0.079
  T3                       1.544      59     0     0         2.487      96       0  07:45      0.088
  T2                       0.568      57     0     0         0.855      86       0  05:01      0.031
  T1                       0.398      57     0     0         0.700     100       0  02:54      0.271
  
  
  ***********************
  Outfall Loading Summary
  ***********************
  
  -----------------------------------------------------------
                         Flow       Avg       Max       Total
                         Freq      Flow      Flow      Volume
  Outfall Node           Pcnt       CMS       CMS    10^6 ltr
  -----------------------------------------------------------
  Out_to_WWTP           99.01     0.185     0.271       5.159
  -----------------------------------------------------------
  System                99.01     0.185     0.271       5.159
  
  
  ********************
  Link Flow Summary
  ********************
  
  -----------------------------------------------------------------------------
                                 Maximum  Time of Max   Maximum    Max/    Max/
                                  |Flow|   Occurrence   |Veloc|    Full    Full
  Link                 Type          CMS  days hr:min     m/sec    Flow   Depth
  -----------------------------------------------------------------------------
  C1                   CONDUIT     0.039     0  03:58      1.11    0.01    0.09
  C6                   CONDUIT     0.071     0  03:01      1.29    1.13    0.75
  C2                   CONDUIT     0.020     0  05:06      0.82    0.02    0.14
  C9                   CONDUIT     0.126     0  03:03      1.29    0.43    0.50
  C16                  CONDUIT     0.489     0  03:01      1.76    0.05    0.15
  C3                   CONDUIT     0.056     0  07:46      1.40    0.02    0.10
  C19                  CONDUIT     0.029     0  02:41      0.61    0.01    0.20
  C11                  CONDUIT     0.113     0  05:05      1.41    0.01    0.11
  C20                  CONDUIT     0.753     0  03:01      2.92    0.02    0.14
  C22                  CONDUIT     0.202     0  03:03      1.59    0.09    0.31
  C12                  CONDUIT     0.079     0  04:28      0.81    0.01    0.22
  C17                  CONDUIT     0.916     0  03:01      3.04    0.05    0.21
  C10                  CONDUIT     0.715     0  03:01      1.66    0.07    0.59
  C13                  CONDUIT     0.952     0  03:03      1.41    0.06    0.70
  C18                  CONDUIT     0.514     0  03:01      1.72    0.02    0.55
  C23                  CONDUIT     1.010     0  03:02      1.24    0.11    0.61
  C4                   CONDUIT     0.362     0  03:01      1.98    0.09    0.60
  C7                   CONDUIT     0.201     0  03:01      1.42    0.05    0.58
  C14                  CONDUIT     0.271     0  02:56      2.08    0.02    0.09
  C5                   CONDUIT     0.071     0  03:01      1.39    1.21    1.00
  C8                   CONDUIT     0.127     0  03:03      1.75    1.60    0.86
  C15                  CONDUIT     0.486     0  02:59      3.42    1.55    0.83
  C21                  CONDUIT     0.202     0  03:03      1.83    1.16    0.69
  V4                   ORIFICE     0.020     0  04:23                      0.25
  V5                   ORIFICE     0.039     0  03:12                      1.00
  V1                   ORIFICE     0.271     0  02:54                      1.00
  V6                   ORIFICE     0.079     0  03:00                      0.45
  V3                   ORIFICE     0.056     0  07:45                      0.55
  V2                   ORIFICE     0.031     0  02:40                      0.35
  
  
  ***************************
  Flow Classification Summary
  ***************************
  
  -------------------------------------------------------------------------------------
                      Adjusted    ---------- Fraction of Time in Flow Class ---------- 
                       /Actual         Up    Down  Sub   Sup   Up    Down  Norm  Inlet 
  Conduit               Length    Dry  Dry   Dry   Crit  Crit  Crit  Crit  Ltd   Ctrl  
  -------------------------------------------------------------------------------------
  C1                      1.00   0.00  0.00  0.00  0.00  1.00  0.00  0.00  0.93  0.00
  C6                      1.00   0.00  0.00  0.00  0.09  0.91  0.00  0.00  0.00  0.00
  C2                      1.00   0.00  0.00  0.00  0.34  0.65  0.00  0.00  0.98  0.00
  C9                      1.00   0.00  0.00  0.00  1.00  0.00  0.00  0.00  1.00  0.00
  C16                     1.00   0.00  0.00  0.00  0.56  0.44  0.00  0.00  0.39  0.00
  C3                      1.00   0.00  0.00  0.00  0.04  0.95  0.00  0.00  0.72  0.00
  C19                     1.00   0.00  0.00  0.00  1.00  0.00  0.00  0.00  1.00  0.00
  C11                     1.00   0.00  0.00  0.00  0.38  0.62  0.00  0.00  1.00  0.00
  C20                     1.00   0.00  0.00  0.00  0.52  0.48  0.00  0.00  0.98  0.00
  C22                     1.00   0.00  0.00  0.00  0.73  0.27  0.00  0.00  1.00  0.00
  C12                     1.00   0.00  0.00  0.00  1.00  0.00  0.00  0.00  1.00  0.00
  C17                     1.00   0.00  0.00  0.00  0.53  0.47  0.00  0.00  0.95  0.00
  C10                     1.00   0.00  0.00  0.00  0.96  0.04  0.00  0.00  0.98  0.00
  C13                     1.00   0.00  0.00  0.00  0.84  0.16  0.00  0.00  0.36  0.00
  C18                     1.00   0.00  0.00  0.00  0.94  0.06  0.00  0.00  0.97  0.00
  C23                     1.00   0.00  0.00  0.00  0.87  0.13  0.00  0.00  0.94  0.00
  C4                      1.00   0.00  0.00  0.00  0.96  0.04  0.00  0.00  0.98  0.00
  C7                      1.00   0.00  0.00  0.00  0.95  0.05  0.00  0.00  0.97  0.00
  C14                     1.00   0.00  0.00  0.00  0.00  0.99  0.00  0.00  0.35  0.00
  C5                      1.00   0.00  0.00  0.00  0.89  0.11  0.00  0.00  0.91  0.00
  C8                      1.00   0.00  0.00  0.00  0.11  0.89  0.00  0.00  0.00  0.00
  C15                     1.00   0.00  0.00  0.00  0.00  1.00  0.00  0.00  0.00  0.00
  C21                     1.00   0.00  0.00  0.00  0.00  1.00  0.00  0.00  0.00  0.00
  
  
  *************************
  Conduit Surcharge Summary
  *************************
  
  ----------------------------------------------------------------------------
                                                           Hours        Hours 
                         --------- Hours Full --------   Above Full   Capacity
  Conduit                Both Ends  Upstream  Dnstream   Normal Flow   Limited
  ----------------------------------------------------------------------------
  C6                          0.01      0.48      0.01      0.38         0.01
  C10                         0.01      0.01      5.72      0.01         0.01
  C13                         0.01      0.01      5.07      0.01         0.01
  C18                         0.01      0.01      5.15      0.01         0.01
  C23                         0.01      0.01      5.74      0.01         0.01
  C4                          0.01      0.01      5.90      0.01         0.01
  C7                          0.01      0.01      5.70      0.01         0.01
  C5                          0.51      0.51      0.63      0.59         0.48
  C8                          0.01      0.54      0.01      0.57         0.01
  C15                         0.01      0.48      0.01      0.57         0.01
  C21                         0.01      0.25      0.01      0.26         0.01
  

  Analysis begun on:  Mon Aug 30 11:34:31 2021
  Analysis ended on:  Mon Aug 30 11:34:31 2021
  Total elapsed time: < 1 sec