
  EPA STORM WATER MANAGEMENT MODEL - VERSION 5.1 (Build 5.3.0.dev0)
  --------------------------------------------------------------

  WARNING 09: time series interval greater than recording interval for Rain Gage RG1
  WARNING 09: time series interval greater than recording interval for Rain Gage RG2
  WARNING 09: time series interval greater than recording interval for Rain Gage RG3
  WARNING 09: time series interval greater than recording interval for Rain Gage RG4
  
  *********************************************************
  NOTE: The summary statistics displayed in this report are
  based on results found at every computational time step,  
  not just on results from each reporting time step.
  *********************************************************
  
  ****************
  Analysis Options
  ****************
  Flow Units ............... CMS
  Process Models:
    Rainfall/Runoff ........ YES
    RDII ................... NO
    Snowmelt ............... NO
    Groundwater ............ NO
    Flow Routing ........... YES
    Ponding Allowed ........ YES
    Water Quality .......... NO
  Infiltration Method ...... HORTON
  Flow Routing Method ...... DYNWAVE
  Surcharge Method ......... EXTRAN
  Starting Date ............ 08/28/2015 00:00:00
  Ending Date .............. 08/28/2015 23:50:00
  Antecedent Dry Days ...... 0.0
  Report Time Step ......... 00:01:00
  Wet Time Step ............ 00:01:00
  Dry Time Step ............ 00:01:00
  Routing Time Step ........ 5.00 sec
  Variable Time Step ....... YES
  Maximum Trials ........... 8
  Number of Threads ........ 1
  Head Tolerance ........... 0.001500 m
  
  
  **************************        Volume         Depth
  Runoff Quantity Continuity     hectare-m            mm
  **************************     ---------       -------
  Total Precipitation ......         2.361        13.103
  Evaporation Loss .........         0.000         0.000
  Infiltration Loss ........         0.000         0.000
  Surface Runoff ...........         2.197        12.191
  Final Storage ............         0.168         0.931
  Continuity Error (%) .....        -0.146
  
  
  **************************        Volume        Volume
  Flow Routing Continuity        hectare-m      10^6 ltr
  **************************     ---------     ---------
  Dry Weather Inflow .......         0.759         7.586
  Wet Weather Inflow .......         2.195        21.946
  Groundwater Inflow .......         0.000         0.000
  RDII Inflow ..............         0.000         0.000
  External Inflow ..........         0.000         0.000
  External Outflow .........         0.600         5.999
  Flooding Loss ............         1.160        11.598
  Evaporation Loss .........         0.000         0.000
  Exfiltration Loss ........         0.000         0.000
  Initial Stored Volume ....         0.000         0.000
  Final Stored Volume ......         0.883         8.829
  Continuity Error (%) .....        10.518
  
  
  *************************
  Highest Continuity Errors
  *************************
  Node T2 (26.76%)
  Node T3 (24.03%)
  Node T4 (17.43%)
  Node T5 (14.75%)
  Node J12 (12.66%)
  
  
  ***************************
  Time-Step Critical Elements
  ***************************
  None
  
  
  ********************************
  Highest Flow Instability Indexes
  ********************************
  Link C20 (1)
  
  
  *************************
  Routing Time Step Summary
  *************************
  Minimum Time Step           :     3.50 sec
  Average Time Step           :     5.00 sec
  Maximum Time Step           :     5.00 sec
  Percent in Steady State     :     0.00
  Average Iterations per Step :     2.00
  Percent Not Converging      :     0.02
  
  
  ***************************
  Subcatchment Runoff Summary
  ***************************
  
  ------------------------------------------------------------------------------------------------------------------------------
                            Total      Total      Total      Total     Imperv       Perv      Total       Total     Peak  Runoff
                           Precip      Runon       Evap      Infil     Runoff     Runoff     Runoff      Runoff   Runoff   Coeff
  Subcatchment                 mm         mm         mm         mm         mm         mm         mm    10^6 ltr      CMS
  ------------------------------------------------------------------------------------------------------------------------------
  SC01                      15.37       0.00       0.00       0.00      14.71       0.00      14.71        4.85     0.59   0.957
  SC02                      12.28       0.00       0.00       0.00      11.56       0.00      11.56        2.63     0.28   0.941
  SC03                      10.44       0.00       0.00       0.00       9.90       0.00       9.90        1.78     0.26   0.948
  SC04                      12.28       0.00       0.00       0.00      11.10       0.00      11.10        0.77     0.07   0.904
  SC05                      15.37       0.00       0.00       0.00      14.66       0.00      14.66        2.29     0.27   0.954
  SC06                      13.46       0.00       0.00       0.00      11.96       0.00      11.96        3.89     0.34   0.888
  SC07                      12.28       0.00       0.00       0.00      11.11       0.00      11.11        0.53     0.05   0.905
  SC08                      10.44       0.00       0.00       0.00       9.54       0.00       9.54        2.67     0.31   0.914
  SC09                      13.46       0.00       0.00       0.00      12.38       0.00      12.38        0.85     0.08   0.919
  SC010                     15.37       0.00       0.00       0.00      14.51       0.00      14.51        1.71     0.20   0.944
  
  
  ******************
  Node Depth Summary
  ******************
  
  ---------------------------------------------------------------------------------
                                 Average  Maximum  Maximum  Time of Max    Reported
                                   Depth    Depth      HGL   Occurrence   Max Depth
  Node                 Type       Meters   Meters   Meters  days hr:min      Meters
  ---------------------------------------------------------------------------------
  J1                   JUNCTION     0.06     0.17    34.17     0  21:41        0.17
  J3                   JUNCTION     0.02     0.12    18.12     0  23:49        0.12
  CSO7                 JUNCTION     0.08     0.20    34.20     0  20:41        0.19
  J5                   JUNCTION     0.05     0.12    32.12     0  20:42        0.12
  CSO9                 JUNCTION     0.08     0.28    40.28     0  21:52        0.28
  J8                   JUNCTION     0.08     0.21    36.21     0  21:52        0.21
  CSO8                 JUNCTION     0.08     0.38    32.38     0  19:51        0.37
  J10                  JUNCTION     0.07     0.21    29.21     0  19:53        0.21
  J13                  JUNCTION     0.05     0.14    29.14     0  20:42        0.14
  J15                  JUNCTION     0.09     0.31    15.31     0  21:43        0.31
  J16                  JUNCTION     0.05     0.18    30.18     0  21:41        0.18
  CSO10                JUNCTION     0.09     0.96    30.96     0  21:41        0.66
  J12                  JUNCTION     0.17     1.01    27.01     0  23:27        1.01
  J4                   JUNCTION     0.09     0.22    33.22     0  20:53        0.22
  J6                   JUNCTION     0.01     0.07    25.07     0  21:13        0.07
  J2                   JUNCTION     0.00     0.00    25.00     0  00:00        0.00
  J19                  JUNCTION     0.07     0.17     8.17     0  20:53        0.17
  J9                   JUNCTION     0.02     0.11    29.11     0  22:06        0.11
  J14                  JUNCTION     0.02     0.15    20.15     0  23:22        0.15
  J17                  JUNCTION     0.01     0.08    20.08     0  21:26        0.08
  J7                   JUNCTION     0.06     0.17    39.17     0  21:54        0.17
  J11                  JUNCTION     0.06     0.23    31.23     0  19:53        0.23
  J18                  JUNCTION     0.04     0.15    29.15     0  21:42        0.15
  Out_to_WWTP          OUTFALL      0.07     0.17     6.17     0  20:52        0.17
  T5                   STORAGE      2.64     5.00    32.00     0  17:50        5.00
  T4                   STORAGE      2.35     5.00    32.00     0  18:38        5.00
  T6                   STORAGE      3.04     5.00    36.00     0  13:55        5.00
  T3                   STORAGE      1.40     5.00    27.00     0  23:27        5.00
  T2                   STORAGE      1.71     5.00    26.00     0  20:06        5.00
  T1                   STORAGE      0.95     5.00    15.00     0  20:52        5.00
  
  
  *******************
  Node Inflow Summary
  *******************
  
  -------------------------------------------------------------------------------------------------
                                  Maximum  Maximum                  Lateral       Total        Flow
                                  Lateral    Total  Time of Max      Inflow      Inflow     Balance
                                   Inflow   Inflow   Occurrence      Volume      Volume       Error
  Node                 Type           CMS      CMS  days hr:min    10^6 ltr    10^6 ltr     Percent
  -------------------------------------------------------------------------------------------------
  J1                   JUNCTION     0.283    0.283     0  21:41        3.38        3.38       0.185
  J3                   JUNCTION     0.000    0.152     0  23:30           0        1.91       1.799
  CSO7                 JUNCTION     0.056    0.056     0  20:41        1.09        1.09       0.080
  J5                   JUNCTION     0.075    0.123     0  20:41        1.01         2.1       0.310
  CSO9                 JUNCTION     0.082    0.082     0  21:51        1.24        1.24       0.130
  J8                   JUNCTION     0.357    0.427     0  21:51        5.72        6.95       0.422
  CSO8                 JUNCTION     0.309    0.309     0  19:51        3.12        3.12       0.092
  J10                  JUNCTION     0.266    0.507     0  19:51        2.53        5.62       0.518
  J13                  JUNCTION     0.292    0.292     0  20:41        3.54        3.54       0.281
  J15                  JUNCTION     0.000    0.906     0  21:42           0        10.2       1.160
  J16                  JUNCTION     0.602    0.602     0  21:41        5.93        5.93       0.138
  CSO10                JUNCTION     0.197    0.197     0  21:41        1.97        1.97       0.112
  J12                  JUNCTION     0.000    0.501     0  20:37           0        6.54      14.490
  J4                   JUNCTION     0.000    0.055     0  20:41           0        1.09       0.548
  J6                   JUNCTION     0.000    0.028     0  20:20           0       0.362       1.049
  J2                   JUNCTION     0.000    0.000     0  00:00           0           0       0.000 ltr
  J19                  JUNCTION     0.000    0.271     0  20:52           0        6.01       0.211
  J9                   JUNCTION     0.000    0.075     0  20:20           0       0.972       2.229
  J14                  JUNCTION     0.000    0.124     0  23:27           0        1.55       0.438
  J17                  JUNCTION     0.000    0.033     0  20:20           0       0.428       1.745
  J7                   JUNCTION     0.000    0.077     0  21:52           0        1.23       0.787
  J11                  JUNCTION     0.000    0.304     0  19:51           0        3.11       0.921
  J18                  JUNCTION     0.000    0.185     0  21:41           0        1.97       0.399
  Out_to_WWTP          OUTFALL      0.000    0.271     0  20:54           0           6       0.000
  T5                   STORAGE      0.000    0.264     0  21:41           0        3.37      17.300
  T4                   STORAGE      0.000    0.120     0  20:42           0        2.09      21.112
  T6                   STORAGE      0.000    0.409     0  21:52           0        6.92      13.929
  T3                   STORAGE      0.000    0.467     0  19:55           0        5.71      31.636
  T2                   STORAGE      0.000    0.271     0  20:42           0        3.53      36.529
  T1                   STORAGE      0.000    0.853     0  21:43           0        10.1       9.037
  
  
  **********************
  Node Surcharge Summary
  **********************
  
  Surcharging occurs when water rises above the top of the highest conduit.
  ---------------------------------------------------------------------
                                               Max. Height   Min. Depth
                                   Hours       Above Crown    Below Rim
  Node                 Type      Surcharged         Meters       Meters
  ---------------------------------------------------------------------
  CSO10                JUNCTION        0.04          0.519        0.041
  
  
  *********************
  Node Flooding Summary
  *********************
  
  Flooding refers to all water that overflows a node, whether it ponds or not.
  --------------------------------------------------------------------------
                                                             Total   Maximum
                                 Maximum   Time of Max       Flood    Ponded
                        Hours       Rate    Occurrence      Volume     Depth
  Node                 Flooded       CMS   days hr:min    10^6 ltr    Meters
  --------------------------------------------------------------------------
  T5                      5.99     0.263      0  21:41       2.376     0.000
  T4                      5.19     0.106      0  19:57       0.867     0.000
  T6                      9.92     0.333      0  21:52       4.499     0.000
  T3                      0.38     0.201      0  23:43       0.184     0.000
  T2                      3.73     0.238      0  20:42       1.156     0.000
  T1                      2.96     0.583      0  21:43       2.517     0.000
  
  
  **********************
  Storage Volume Summary
  **********************
  
  --------------------------------------------------------------------------------------------------
                         Average     Avg  Evap Exfil       Maximum     Max    Time of Max    Maximum
                          Volume    Pcnt  Pcnt  Pcnt        Volume    Pcnt     Occurrence    Outflow
  Storage Unit           1000 m3    Full  Loss  Loss       1000 m3    Full    days hr:min        CMS
  --------------------------------------------------------------------------------------------------
  T5                       0.264      53     0     0         0.500     100       0  17:50      0.000
  T4                       0.235      47     0     0         0.500     100       0  18:38      0.028
  T6                       0.365      61     0     0         0.600     100       0  13:55      0.075
  T3                       0.726      28     0     0         2.600     100       0  23:27      0.124
  T2                       0.342      34     0     0         1.000     100       0  20:06      0.033
  T1                       0.133      19     0     0         0.700     100       0  20:52      0.271
  
  
  ***********************
  Outfall Loading Summary
  ***********************
  
  -----------------------------------------------------------
                         Flow       Avg       Max       Total
                         Freq      Flow      Flow      Volume
  Outfall Node           Pcnt       CMS       CMS    10^6 ltr
  -----------------------------------------------------------
  Out_to_WWTP           99.43     0.070     0.271       5.999
  -----------------------------------------------------------
  System                99.43     0.070     0.271       5.999
  
  
  ********************
  Link Flow Summary
  ********************
  
  -----------------------------------------------------------------------------
                                 Maximum  Time of Max   Maximum    Max/    Max/
                                  |Flow|   Occurrence   |Veloc|    Full    Full
  Link                 Type          CMS  days hr:min     m/sec    Flow   Depth
  -----------------------------------------------------------------------------
  C1                   CONDUIT     0.000     0  00:00      0.00    0.00    0.06
  C6                   CONDUIT     0.051     0  20:48      1.24    0.81    0.57
  C2                   CONDUIT     0.028     0  21:13      1.13    0.03    0.16
  C9                   CONDUIT     0.074     0  21:54      1.08    0.25    0.38
  C16                  CONDUIT     0.275     0  19:53      1.47    0.03    0.11
  C3                   CONDUIT     0.124     0  23:30      2.00    0.05    0.14
  C19                  CONDUIT     0.033     0  21:26      0.51    0.01    0.19
  C11                  CONDUIT     0.152     0  23:49      1.26    0.01    0.11
  C20                  CONDUIT     0.557     0  21:41      2.57    0.02    0.12
  C22                  CONDUIT     0.172     0  21:43      1.44    0.08    0.29
  C12                  CONDUIT     0.075     0  22:06      0.63    0.01    0.28
  C17                  CONDUIT     0.483     0  19:53      2.60    0.02    0.29
  C10                  CONDUIT     0.409     0  21:52      0.93    0.04    0.57
  C13                  CONDUIT     0.467     0  19:55      0.66    0.03    0.75
  C18                  CONDUIT     0.271     0  20:42      1.01    0.01    0.54
  C23                  CONDUIT     0.853     0  21:43      1.45    0.09    0.60
  C4                   CONDUIT     0.264     0  21:41      1.12    0.06    0.59
  C7                   CONDUIT     0.120     0  20:42      0.80    0.03    0.56
  C14                  CONDUIT     0.271     0  20:54      2.08    0.02    0.09
  C5                   CONDUIT     0.055     0  20:41      1.24    0.93    0.81
  C8                   CONDUIT     0.077     0  21:52      1.33    0.97    0.70
  C15                  CONDUIT     0.304     0  19:51      2.75    0.97    0.66
  C21                  CONDUIT     0.185     0  21:41      1.77    1.06    0.67
  V4                   ORIFICE     0.028     0  20:20                      0.35
  V5                   ORIFICE     0.000     0  00:00                      0.00
  V1                   ORIFICE     0.271     0  20:52                      1.00
  V6                   ORIFICE     0.075     0  20:20                      0.43
  V3                   ORIFICE     0.124     0  23:27                      0.65
  V2                   ORIFICE     0.033     0  20:20                      0.24
  
  
  ***************************
  Flow Classification Summary
  ***************************
  
  -------------------------------------------------------------------------------------
                      Adjusted    ---------- Fraction of Time in Flow Class ---------- 
                       /Actual         Up    Down  Sub   Sup   Up    Down  Norm  Inlet 
  Conduit               Length    Dry  Dry   Dry   Crit  Crit  Crit  Crit  Ltd   Ctrl  
  -------------------------------------------------------------------------------------
  C1                      1.00   0.85  0.15  0.00  0.00  0.00  0.00  0.00  0.00  0.00
  C6                      1.00   0.00  0.00  0.00  0.01  0.99  0.00  0.00  0.00  0.00
  C2                      1.00   0.85  0.00  0.00  0.00  0.15  0.00  0.00  0.15  0.00
  C9                      1.00   0.00  0.00  0.00  1.00  0.00  0.00  0.00  1.00  0.00
  C16                     1.00   0.00  0.25  0.00  0.50  0.25  0.00  0.00  0.42  0.00
  C3                      1.00   0.85  0.00  0.00  0.00  0.15  0.00  0.00  0.00  0.00
  C19                     1.00   0.00  0.85  0.00  0.15  0.00  0.00  0.00  0.15  0.00
  C11                     1.00   0.00  0.85  0.00  0.09  0.06  0.00  0.00  0.15  0.00
  C20                     1.00   0.00  0.00  0.00  0.00  1.00  0.00  0.00  0.99  0.00
  C22                     1.00   0.00  0.00  0.00  0.79  0.21  0.00  0.00  1.00  0.00
  C12                     1.00   0.00  0.85  0.00  0.15  0.00  0.00  0.00  0.15  0.00
  C17                     1.00   0.00  0.00  0.00  0.13  0.87  0.00  0.00  0.91  0.00
  C10                     1.00   0.00  0.00  0.00  0.98  0.02  0.00  0.00  0.99  0.00
  C13                     1.00   0.00  0.00  0.00  0.93  0.07  0.00  0.00  0.80  0.00
  C18                     1.00   0.00  0.00  0.00  0.97  0.03  0.00  0.00  0.98  0.00
  C23                     1.00   0.00  0.00  0.00  0.44  0.56  0.00  0.00  0.92  0.00
  C4                      1.00   0.00  0.00  0.00  0.98  0.02  0.00  0.00  0.99  0.00
  C7                      1.00   0.00  0.00  0.00  0.97  0.03  0.00  0.00  0.98  0.00
  C14                     1.00   0.00  0.00  0.00  0.00  1.00  0.00  0.00  0.35  0.00
  C5                      1.00   0.00  0.00  0.00  0.91  0.09  0.00  0.00  0.99  0.00
  C8                      1.00   0.00  0.00  0.00  0.16  0.84  0.00  0.00  0.00  0.00
  C15                     1.00   0.25  0.00  0.00  0.00  0.75  0.00  0.00  0.00  0.00
  C21                     1.00   0.00  0.00  0.00  0.00  1.00  0.00  0.00  0.00  0.00
  
  
  *************************
  Conduit Surcharge Summary
  *************************
  
  ----------------------------------------------------------------------------
                                                           Hours        Hours 
                         --------- Hours Full --------   Above Full   Capacity
  Conduit                Both Ends  Upstream  Dnstream   Normal Flow   Limited
  ----------------------------------------------------------------------------
  C10                         0.01      0.01     16.03      0.01         0.01
  C13                         0.01      0.01      5.45      0.01         0.01
  C18                         0.01      0.01      6.12      0.01         0.01
  C23                         0.01      0.01      5.41      0.01         0.01
  C4                          0.01      0.01     16.06      0.01         0.01
  C7                          0.01      0.01     15.27      0.01         0.01
  C21                         0.01      0.04      0.01      0.04         0.01
  

  Analysis begun on:  Mon Sep 20 11:55:55 2021
  Analysis ended on:  Mon Sep 20 11:55:55 2021
  Total elapsed time: < 1 sec