
  EPA STORM WATER MANAGEMENT MODEL - VERSION 5.1 (Build 5.3.0.dev0)
  --------------------------------------------------------------

  WARNING 04: minimum elevation drop used for Conduit WS02004404WS02004405
  WARNING 03: negative offset ignored for Link YS02001904YS02001907
  
  *********************************************************
  NOTE: The summary statistics displayed in this report are
  based on results found at every computational time step,  
  not just on results from each reporting time step.
  *********************************************************
  
  ****************
  Analysis Options
  ****************
  Flow Units ............... LPS
  Process Models:
    Rainfall/Runoff ........ YES
    RDII ................... NO
    Snowmelt ............... NO
    Groundwater ............ NO
    Flow Routing ........... YES
    Ponding Allowed ........ NO
    Water Quality .......... YES
  Infiltration Method ...... HORTON
  Flow Routing Method ...... DYNWAVE
  Surcharge Method ......... EXTRAN
  Starting Date ............ 08/28/2015 08:00:00
  Ending Date .............. 08/28/2015 15:50:00
  Antecedent Dry Days ...... 8.0
  Report Time Step ......... 00:01:00
  Wet Time Step ............ 00:01:00
  Dry Time Step ............ 00:01:00
  Routing Time Step ........ 5.00 sec
  Variable Time Step ....... YES
  Maximum Trials ........... 8
  Number of Threads ........ 4
  Head Tolerance ........... 0.001500 m
  
  
  **************************        Volume         Depth
  Runoff Quantity Continuity     hectare-m            mm
  **************************     ---------       -------
  Total Precipitation ......         7.641        16.729
  Evaporation Loss .........         0.000         0.000
  Infiltration Loss ........         1.184         2.592
  Surface Runoff ...........         5.481        12.000
  Final Storage ............         0.977         2.139
  Continuity Error (%) .....        -0.016
  
  
  **************************           COD            SS            TN            TP         NH4-N
  Runoff Quality Continuity             kg            kg            kg            kg            kg
  **************************    ----------    ----------    ----------    ----------    ----------
  Initial Buildup ..........     41378.656     70582.865      1804.177       168.684      1032.807
  Surface Buildup ..........        30.344        63.217         2.449         0.220         1.402
  Wet Deposition ...........         0.000         0.000         0.000         0.000         0.000
  Sweeping Removal .........         0.000         0.000         0.000         0.000         0.000
  Infiltration Loss ........       127.934       247.015         2.452         0.174         1.174
  BMP Removal ..............         0.000         0.000         0.000         0.000         0.000
  Surface Runoff ...........      5553.100     10632.121       107.101         7.411        51.076
  Remaining Buildup ........     35725.917     59762.998      1697.031       161.316       981.940
  Continuity Error (%) .....         0.005         0.006         0.002         0.002         0.002
  
  
  **************************        Volume        Volume
  Flow Routing Continuity        hectare-m      10^6 ltr
  **************************     ---------     ---------
  Dry Weather Inflow .......         0.616         6.165
  Wet Weather Inflow .......         5.479        54.790
  Groundwater Inflow .......         0.000         0.000
  RDII Inflow ..............         0.000         0.000
  External Inflow ..........         0.102         1.024
  External Outflow .........         2.133        21.334
  Flooding Loss ............         3.562        35.619
  Evaporation Loss .........         0.000         0.000
  Exfiltration Loss ........         0.000         0.000
  Initial Stored Volume ....         0.076         0.761
  Final Stored Volume ......         0.663         6.630
  Continuity Error (%) .....        -1.345
  
  
  **************************           COD            SS            TN            TP         NH4-N
  Quality Routing Continuity            kg            kg            kg            kg            kg
  **************************    ----------    ----------    ----------    ----------    ----------
  Dry Weather Inflow .......      1541.201      2465.922       147.955        18.494        92.472
  Wet Weather Inflow .......      5551.801     10629.755       107.074         7.409        51.064
  Groundwater Inflow .......         0.000         0.000         0.000         0.000         0.000
  RDII Inflow ..............         0.000         0.000         0.000         0.000         0.000
  External Inflow ..........       183.418       293.469        17.608         2.201        11.005
  External Outflow .........      2643.273      4715.962       144.747        16.538        86.230
  Flooding Loss ............      3969.626      7514.767       100.444         8.712        52.605
  Exfiltration Loss ........         0.000         0.000         0.000         0.000         0.000
  Mass Reacted .............         0.000         0.000         0.000         0.000         0.000
  Initial Stored Mass ......         0.000         0.000         0.000         0.000         0.000
  Final Stored Mass ........       579.813      1020.884        24.825         2.621        14.305
  Continuity Error (%) .....         1.150         1.027         0.962         0.828         0.906
  
  
  *************************
  Highest Continuity Errors
  *************************
  Node HS02004842 (10.96%)
  Node YS02001884 (10.25%)
  Node JK-storage (-6.70%)
  Node HS02004817 (2.13%)
  Node YSB1171 (1.97%)
  
  
  ***************************
  Time-Step Critical Elements
  ***************************
  Link WS02006252WS02006251 (70.15%)
  Link WS02006280WS02006229 (7.23%)
  Link WS02006238WS02006235 (5.16%)
  Link YS02001661YS02001658 (2.73%)
  Link YS02001793JiankangQianchi (2.73%)
  
  
  ********************************
  Highest Flow Instability Indexes
  ********************************
  Link WS02006113WS02006111 (38)
  Link YS02001619YS02001622 (25)
  Link YS02163601YS02164001 (25)
  Link YS02001629YS02163301 (25)
  Link YS02163301YS02001633 (24)
  
  
  *************************
  Routing Time Step Summary
  *************************
  Minimum Time Step           :     0.50 sec
  Average Time Step           :     1.07 sec
  Maximum Time Step           :     5.00 sec
  Percent in Steady State     :    -0.00
  Average Iterations per Step :     3.74
  Percent Not Converging      :    13.95
  
  
  ***************************
  Subcatchment Runoff Summary
  ***************************
  
  ------------------------------------------------------------------------------------------------------------------------------
                            Total      Total      Total      Total     Imperv       Perv      Total       Total     Peak  Runoff
                           Precip      Runon       Evap      Infil     Runoff     Runoff     Runoff      Runoff   Runoff   Coeff
  Subcatchment                 mm         mm         mm         mm         mm         mm         mm    10^6 ltr      LPS
  ------------------------------------------------------------------------------------------------------------------------------
  sub0                      16.73       0.00       0.00       0.71      15.51       0.47      15.98        0.01     3.87   0.955
  sub1                      16.73       0.00       0.00       1.18      14.80       0.66      15.46        0.10    26.74   0.924
  sub2                      16.73       0.00       0.00       4.79      10.46       1.40      11.85        0.11    25.81   0.708
  sub3                      16.73       0.00       0.00       5.01      10.42       1.18      11.60        0.26    56.97   0.693
  sub4                      16.73       0.00       0.00       1.28      14.64       0.56      15.20        0.32    66.74   0.909
  sub5                      16.73       0.00       0.00       0.73      15.46       0.44      15.91        0.18    46.91   0.951
  sub7                      16.73       0.00       0.00       0.93      15.16       0.58      15.74        0.05    14.85   0.941
  sub8                      16.73       0.00       0.00       0.94      15.15       0.57      15.72        0.10    27.42   0.940
  sub9                      16.73       0.00       0.00       0.94      15.15       0.57      15.72        0.08    20.52   0.940
  sub10                     16.73       0.00       0.00       0.83      15.30       0.50      15.81        0.17    46.04   0.945
  sub11                     16.73       0.00       0.00       0.83      15.32       0.51      15.83        0.18    50.62   0.947
  sub12                     16.73       0.00       0.00       1.34      14.51       0.83      15.34        0.13    39.22   0.917
  sub14                     16.73       0.00       0.00       0.94      15.15       0.57      15.72        0.15    40.40   0.939
  sub15                     16.73       0.00       0.00       3.54      11.65       1.48      13.13        0.23    57.86   0.785
  sub16                     16.73       0.00       0.00       3.72      11.17       1.80      12.97        0.14    37.34   0.776
  sub17                     16.73       0.00       0.00       3.62      11.33       1.73      13.07        0.11    30.57   0.781
  sub22                     16.73       0.00       0.00       5.27       9.49       1.92      11.42        0.72   183.11   0.683
  sub23                     16.73       0.00       0.00       4.37      10.50       1.82      12.32        0.59   153.57   0.736
  sub60                     16.73       0.00       0.00       1.74      12.78       0.27      13.05        3.96   446.24   0.780
  sub61                     16.73       0.00       0.00       2.46      12.72       0.38      13.11        4.04   542.53   0.784
  sub62                     16.73       0.00       0.00       1.06      13.91       0.27      14.19        4.36   558.01   0.848
  sub63                     16.73       0.00       0.00       4.39      11.06       0.46      11.52        3.49   496.40   0.689
  sub64                     16.73       0.00       0.00       2.23      12.28       0.28      12.56        3.82   424.95   0.751
  sub65                     16.73       0.00       0.00       1.91      12.51       0.27      12.77        3.93   431.32   0.764
  sub66                     16.73       0.00       0.00       4.54      10.46       0.31      10.78        3.31   388.44   0.644
  sub67                     16.73       0.00       0.00       1.01      14.45       0.32      14.78        4.56   675.76   0.883
  sub68                     16.73       0.00       0.00       1.95      13.33       0.39      13.71        4.22   589.75   0.820
  sub69                     16.73       0.00       0.00       2.00      13.62       0.51      14.12        3.30   542.07   0.844
  sub70                     16.73      14.42       0.00       8.47      19.01       2.12      21.13        4.84   534.50   0.678
  sub71                     16.73       0.00       0.00       1.08      13.65       0.25      13.90        3.28   394.68   0.831
  sub72                     16.73       0.00       0.00       1.02      11.50       0.15      11.65        2.37   206.66   0.697
  1                         16.73      20.58       0.00       1.37      22.38       7.20      29.58        6.95   612.18   0.793
  2                         16.73       0.00       0.00       3.02       4.04       3.18       7.22        2.89   331.58   0.431
  
  
  ****************************
  Subcatchment Washoff Summary
  ****************************
  
  ------------------------------------------------------------------------------------------
                                 COD            SS            TN            TP         NH4-N
  Subcatchment                    kg            kg            kg            kg            kg
  ------------------------------------------------------------------------------------------
  sub0                         3.641         7.161         0.064         0.005         0.031
  sub1                        15.670        31.767         0.296         0.021         0.143
  sub2                        10.304        20.454         0.214         0.015         0.099
  sub3                        25.293        49.815         0.517         0.036         0.240
  sub4                        36.168        74.260         0.714         0.044         0.344
  sub5                        35.763        71.366         0.649         0.050         0.316
  sub7                         7.894        16.212         0.150         0.010         0.073
  sub8                        11.755        24.726         0.234         0.014         0.113
  sub9                        10.113        20.966         0.196         0.013         0.095
  sub10                       29.347        59.341         0.545         0.040         0.265
  sub11                       28.395        58.052         0.536         0.037         0.260
  sub12                       24.463        49.072         0.450         0.034         0.218
  sub14                       21.697        44.543         0.414         0.028         0.200
  sub15                       29.696        58.821         0.572         0.042         0.270
  sub16                       19.246        38.050         0.367         0.028         0.174
  sub17                       17.687        34.653         0.330         0.026         0.156
  sub22                       95.915       186.896         1.820         0.139         0.857
  sub23                       54.382       109.539         1.141         0.076         0.527
  sub60                      353.947       679.509         6.988         0.437         3.357
  sub61                      439.695       840.113         8.188         0.570         3.952
  sub62                      449.790       873.119         8.744         0.564         4.209
  sub63                      328.186       618.356         6.505         0.463         3.037
  sub64                      450.924       835.563         8.299         0.611         3.976
  sub65                      460.537       856.688         8.527         0.617         4.090
  sub66                      259.427       485.147         5.248         0.348         2.463
  sub67                      667.181      1281.068        12.075         0.900         5.853
  sub68                      479.473       924.467         9.153         0.628         4.389
  sub69                      429.286       835.450         8.068         0.576         3.873
  sub70                      758.301      1478.311        15.194         1.074         7.173
  sub71                      296.268       580.620         6.027         0.356         2.890
  sub72                      247.759       452.374         4.612         0.320         2.223
  1                          576.917      1130.968        11.723         0.829         5.484
  2                           65.566       118.435         1.802         0.109         0.773
  ------------------------------------------------------------------------------------------
  System                    6740.687     12945.882       130.363         9.060        62.122
  
  
  ******************
  Node Depth Summary
  ******************
  
  ---------------------------------------------------------------------------------
                                 Average  Maximum  Maximum  Time of Max    Reported
                                   Depth    Depth      HGL   Occurrence   Max Depth
  Node                 Type       Meters   Meters   Meters  days hr:min      Meters
  ---------------------------------------------------------------------------------
  WS02001211           JUNCTION     0.78     0.85     5.69     0  02:01        0.85
  WS02001212           JUNCTION     0.49     0.58     5.64     0  02:01        0.58
  WS02001213           JUNCTION     0.73     0.86     5.62     0  02:01        0.86
  WS02003069           JUNCTION     0.54     0.72     5.31     0  02:01        0.72
  WS02003072           JUNCTION     0.60     0.77     5.14     0  02:00        0.77
  WS02003073           JUNCTION     0.36     0.48     4.55     0  02:01        0.48
  WS02003060           JUNCTION     0.47     0.64     5.57     0  02:00        0.64
  WS02003066           JUNCTION     0.26     0.39     5.94     0  01:55        0.39
  WS02003059           JUNCTION     0.78     0.91     5.60     0  02:00        0.91
  WS02003067           JUNCTION     0.63     0.83     6.15     0  01:53        0.83
  WS02004401           JUNCTION     0.77     1.31     7.31     0  01:51        1.29
  WS02004402           JUNCTION     0.79     1.29     7.25     0  01:51        1.27
  WS02004403           JUNCTION     0.81     1.27     7.20     0  01:51        1.24
  WS02004404           JUNCTION     0.88     1.31     7.16     0  01:51        1.27
  WS02004406           JUNCTION     0.88     1.20     7.03     0  01:51        1.18
  WS02004409           JUNCTION     0.57     0.98     6.75     0  01:54        0.98
  WS02004410           JUNCTION     0.59     0.96     6.68     0  01:54        0.96
  WS02004411           JUNCTION     0.60     0.94     6.62     0  01:54        0.94
  WS02004412           JUNCTION     0.61     0.92     6.56     0  01:54        0.91
  WS02004413           JUNCTION     0.77     1.03     6.50     0  01:54        1.03
  WS02004405           JUNCTION     0.87     1.28     7.13     0  01:51        1.24
  WS02006109           JUNCTION     0.87     1.83     8.45     0  01:51        1.74
  WS02006110           JUNCTION     0.83     1.86     8.45     0  01:51        1.53
  WS02006111           JUNCTION     0.28     1.10     7.80     0  01:51        0.97
  WS02006112           JUNCTION     0.95     1.67     7.55     0  01:51        1.64
  WS02006113           JUNCTION     0.40     1.52     8.42     0  01:51        1.02
  WS02006115           JUNCTION     0.67     1.32     7.46     0  01:51        1.30
  WS02006116           JUNCTION     0.75     1.35     7.39     0  01:51        1.33
  WS02006230           JUNCTION     0.89     1.97     8.72     0  01:52        1.95
  WS02006231           JUNCTION     0.63     1.61     8.73     0  01:52        1.58
  WS02006232           JUNCTION     0.78     1.70     8.74     0  01:52        1.68
  WS02006234           JUNCTION     0.72     1.59     8.75     0  01:52        1.57
  WS02006235           JUNCTION     0.76     1.60     8.76     0  01:52        1.57
  WS02006238           JUNCTION     0.78     1.61     8.76     0  01:52        1.59
  WS02006240           JUNCTION     0.68     1.44     8.74     0  01:52        1.43
  WS02006242           JUNCTION     0.73     1.46     8.73     0  01:52        1.44
  WS02006243           JUNCTION     0.61     1.30     8.72     0  01:52        1.28
  WS02006245           JUNCTION     0.58     1.22     8.71     0  01:52        1.21
  WS02006247           JUNCTION     0.59     1.20     8.70     0  01:52        1.20
  WS02006248           JUNCTION     0.53     1.10     8.69     0  01:51        1.10
  WS02006249           JUNCTION     0.55     1.09     8.69     0  01:50        1.09
  WS02006239           JUNCTION     0.74     1.54     8.75     0  01:52        1.52
  WS02006251           JUNCTION     0.52     1.27     8.94     0  04:33        1.23
  WS02006252           JUNCTION     0.32     0.84     9.08     0  04:33        0.78
  WS02006253           JUNCTION     0.55     1.34     8.99     0  04:33        1.30
  WS02006256           JUNCTION     1.82     2.35     9.28     0  00:00        2.35
  WS02004138           JUNCTION     0.19     0.20     7.45     0  00:00        0.19
  WS02004139           JUNCTION     0.73     0.79     5.70     0  02:01        0.79
  WS02004407           JUNCTION     0.25     0.40     6.72     0  01:52        0.40
  WS02006228           JUNCTION     0.89     1.93     8.58     0  01:52        1.92
  WS02006229           JUNCTION     0.88     2.01     8.70     0  01:52        1.99
  WS02006280           JUNCTION     0.08     0.32     8.60     0  01:51        0.30
  WS02006284           JUNCTION     0.38     0.66     9.06     0  01:54        0.66
  WS02006287           JUNCTION     0.11     0.40     9.36     0  01:54        0.40
  WSF200               JUNCTION     0.26     0.44     5.68     0  01:54        0.44
  HS02004901           JUNCTION     0.14     0.38    10.21     0  01:53        0.38
  HS02004881           JUNCTION     0.01     0.05     9.08     0  01:54        0.05
  HS02004876           JUNCTION     0.05     0.17     9.20     0  01:54        0.17
  HS02004870           JUNCTION     0.02     0.10     9.38     0  01:54        0.10
  HS02004862           JUNCTION     0.02     0.11     9.50     0  01:55        0.11
  HS02004856           JUNCTION     0.08     0.15     9.58     0  01:54        0.15
  HS02004852           JUNCTION     0.01     0.08     9.59     0  01:55        0.08
  HS02004848           JUNCTION     0.01     0.07     9.67     0  01:54        0.07
  HS02004842           JUNCTION     0.34     0.40     9.67     0  01:54        0.40
  HS02004837           JUNCTION     0.03     0.09     9.67     0  01:54        0.09
  HS02004830           JUNCTION     0.04     0.11     9.58     0  01:55        0.11
  HS02004824           JUNCTION     0.03     0.15     9.55     0  01:54        0.15
  HS02004817           JUNCTION     0.46     0.71     9.56     0  01:54        0.71
  HS02004807           JUNCTION     0.14     0.38     9.55     0  01:55        0.38
  HS02004802           JUNCTION     0.18     0.41     9.54     0  01:55        0.41
  HS02004799           JUNCTION     0.14     0.48     9.69     0  01:53        0.48
  HS02004792           JUNCTION     0.04     0.22     9.75     0  01:53        0.22
  HS02004788           JUNCTION     0.03     0.16    10.06     0  01:54        0.16
  HS02004785           JUNCTION     0.06     0.25    10.15     0  01:53        0.25
  HS02004777           JUNCTION     0.16     0.40    10.20     0  01:53        0.40
  HS02004770           JUNCTION     0.13     0.37    10.21     0  01:53        0.37
  HS02004480           JUNCTION     0.10     0.39     9.64     0  01:53        0.39
  HS02004479           JUNCTION     0.13     0.43     9.64     0  01:53        0.43
  HS02004478           JUNCTION     0.07     0.29     9.52     0  01:54        0.29
  YS02001745           JUNCTION     0.80     0.97     8.49     0  02:40        0.97
  YS02001748           JUNCTION     1.21     1.61     8.68     0  01:47        1.41
  YS02001751           JUNCTION     1.39     1.71     8.59     0  01:47        1.60
  YS02001754           JUNCTION     1.65     1.87     8.48     0  02:40        1.86
  YS02001762           JUNCTION     1.85     2.06     8.46     0  02:39        2.06
  YS02001765           JUNCTION     1.80     2.01     8.46     0  02:39        2.00
  YS02001767           JUNCTION     1.76     1.97     8.45     0  02:39        1.95
  YS02001770           JUNCTION     1.75     1.95     8.44     0  02:40        1.94
  YS02001774           JUNCTION     1.82     2.00     8.42     0  02:41        1.99
  YS02001779           JUNCTION     1.56     1.68     8.37     0  01:47        1.68
  YS02001882           JUNCTION     0.70     1.64     8.35     0  01:52        1.63
  YS02001884           JUNCTION     0.80     1.74     8.35     0  02:12        1.73
  YS02001759           JUNCTION     1.88     2.11     8.47     0  02:39        2.10
  YS02001887           JUNCTION     0.88     1.81     8.35     0  02:08        1.81
  YS02001890           JUNCTION     0.91     1.81     8.32     0  01:52        1.81
  YS02001898           JUNCTION     0.67     1.57     8.30     0  01:52        1.56
  YS02001901           JUNCTION     0.79     1.68     8.29     0  02:12        1.67
  YS02001904           JUNCTION     0.77     1.64     8.27     0  02:15        1.63
  YS02001907           JUNCTION     1.10     1.96     8.25     0  01:52        1.96
  YS02001910           JUNCTION     0.89     1.82     8.33     0  01:53        1.79
  YS02001915           JUNCTION     0.69     1.67     8.39     0  01:53        1.63
  YS02001918           JUNCTION     0.43     1.42     8.49     0  01:53        1.34
  YS02001619           JUNCTION     1.34     1.55     8.48     0  01:45        1.48
  YS02001629           JUNCTION     1.70     1.85     8.40     0  01:46        1.84
  YS02001641           JUNCTION     1.80     1.94     8.37     0  01:47        1.93
  YS02001644           JUNCTION     1.80     1.92     8.35     0  01:47        1.92
  YS02001652           JUNCTION     1.66     1.98     8.57     0  04:02        1.85
  YS02001655           JUNCTION     1.42     1.84     8.69     0  04:02        1.64
  YS02001920           JUNCTION     0.53     1.53     8.53     0  01:53        1.42
  YS02001923           JUNCTION     0.36     1.31     8.57     0  01:53        1.21
  YS02001926           JUNCTION     0.38     1.15     8.59     0  01:53        1.04
  YS02001929           JUNCTION     0.24     0.92     8.62     0  01:53        0.82
  YS02001658           JUNCTION     1.14     1.74     8.88     0  04:02        1.39
  YS02001661           JUNCTION     0.90     1.66     9.06     0  04:02        1.17
  YS02001664           JUNCTION     0.41     0.57     8.49     0  04:00        0.56
  YS02001622           JUNCTION     1.36     1.55     8.46     0  01:45        1.50
  YS02001633           JUNCTION     1.79     1.96     8.42     0  01:47        1.94
  YS02001649           JUNCTION     1.85     2.05     8.44     0  02:30        2.05
  YS02001757           JUNCTION     1.98     2.21     8.47     0  02:39        2.20
  YS02001895           JUNCTION     0.67     1.57     8.32     0  02:12        1.56
  YS02001625           JUNCTION     1.65     1.78     8.38     0  01:45        1.78
  YS02163301           JUNCTION     1.73     1.89     8.41     0  01:47        1.88
  YS02163601           JUNCTION     1.84     2.01     8.41     0  01:47        1.98
  YS02164001           JUNCTION     1.78     1.93     8.39     0  01:47        1.91
  YS02001647           JUNCTION     1.63     1.80     8.41     0  03:54        1.79
  YSB1154              JUNCTION     0.27     0.58     9.64     0  01:53        0.58
  YSB6556              JUNCTION     0.17     0.47     9.64     0  01:53        0.47
  YSB1174              JUNCTION     0.23     0.53     9.64     0  01:53        0.53
  YSB1171              JUNCTION     0.43     0.74     9.64     0  01:53        0.74
  YS02006553           JUNCTION     1.10     1.97     8.25     0  02:12        1.97
  YS02006561           JUNCTION     0.42     1.08     7.74     0  02:15        1.07
  YS02006556           JUNCTION     1.06     1.94     8.25     0  02:12        1.93
  YS02006558           JUNCTION     1.10     1.98     8.25     0  02:11        1.97
  YS02001783           JUNCTION     0.65     1.47     7.61     0  02:14        1.46
  YS02001784           JUNCTION     0.66     1.40     7.47     0  02:05        1.40
  YS02001786           JUNCTION     0.58     1.24     7.27     0  02:12        1.23
  YS02001788           JUNCTION     0.50     1.11     7.09     0  02:15        1.10
  YS02001790           JUNCTION     0.62     1.77     7.41     0  06:56        1.26
  YS02001791           JUNCTION     0.59     2.72     8.19     0  05:17        1.23
  YS02001793           JUNCTION     0.85     2.54     7.37     0  05:14        1.78
  WSC                  OUTFALL      0.36     0.48     1.15     0  02:02        0.48
  JK-storage           STORAGE      3.44     5.80     6.60     0  04:18        5.80
  CC-storage           STORAGE      1.23     1.47     8.47     0  02:37        1.47
  XR-storage           STORAGE      7.12     7.72     5.72     0  02:10        7.72
  
  
  *******************
  Node Inflow Summary
  *******************
  
  -------------------------------------------------------------------------------------------------
                                  Maximum  Maximum                  Lateral       Total        Flow
                                  Lateral    Total  Time of Max      Inflow      Inflow     Balance
                                   Inflow   Inflow   Occurrence      Volume      Volume       Error
  Node                 Type           LPS      LPS  days hr:min    10^6 ltr    10^6 ltr     Percent
  -------------------------------------------------------------------------------------------------
  WS02001211           JUNCTION      7.35   390.82     0  02:27       0.207        10.4       0.394
  WS02001212           JUNCTION      0.00   394.17     0  02:28           0        10.4       0.240
  WS02001213           JUNCTION      0.00   397.31     0  02:27           0        10.4       0.286
  WS02003069           JUNCTION      0.32  1346.98     0  02:00     0.00902        21.4       0.179
  WS02003072           JUNCTION      0.00  1347.00     0  02:01           0        21.4       0.211
  WS02003073           JUNCTION      1.82  1348.93     0  02:01      0.0514        21.4       0.248
  WS02003060           JUNCTION     16.53  1346.75     0  02:00       0.466        21.4       0.168
  WS02003066           JUNCTION      0.00   956.84     0  01:55           0        10.7       0.048
  WS02003059           JUNCTION      0.00   400.97     0  02:27           0        10.3       0.401
  WS02003067           JUNCTION      0.00   956.62     0  01:54           0        10.7       0.097
  WS02004401           JUNCTION      0.00   968.35     0  01:52           0          11       0.204
  WS02004402           JUNCTION      0.00   968.41     0  01:52           0        10.9       0.193
  WS02004403           JUNCTION      0.00   969.25     0  01:52           0        10.9       0.174
  WS02004404           JUNCTION      0.16   969.51     0  01:52     0.00457        10.9       0.131
  WS02004406           JUNCTION      0.00   970.76     0  01:52           0        10.9       0.318
  WS02004409           JUNCTION      0.00   968.40     0  01:52           0        10.8       0.176
  WS02004410           JUNCTION      0.00   956.61     0  01:53           0        10.8       0.197
  WS02004411           JUNCTION      0.00   954.55     0  01:54           0        10.8       0.201
  WS02004412           JUNCTION      0.00   956.10     0  01:54           0        10.8       0.213
  WS02004413           JUNCTION      0.00   956.42     0  01:54           0        10.7       0.311
  WS02004405           JUNCTION      0.04   970.95     0  01:52     0.00107        10.9       0.195
  WS02006109           JUNCTION      1.23   935.90     0  01:53      0.0347          11       0.171
  WS02006110           JUNCTION      0.00   936.04     0  01:53           0          11       0.173
  WS02006111           JUNCTION      0.00   936.14     0  01:53           0        10.9       0.037
  WS02006112           JUNCTION     30.57   966.74     0  01:52       0.112          11       0.283
  WS02006113           JUNCTION      0.00   935.67     0  01:53           0        10.9       0.095
  WS02006115           JUNCTION      0.00   966.83     0  01:52           0          11       0.199
  WS02006116           JUNCTION      0.00   968.33     0  01:52           0          11       0.172
  WS02006230           JUNCTION     10.28   531.21     0  04:57        0.29        7.89       0.163
  WS02006231           JUNCTION      0.00   520.96     0  04:51           0        7.61       0.142
  WS02006232           JUNCTION      0.00   520.84     0  04:57           0        7.62       0.215
  WS02006234           JUNCTION      0.00   521.15     0  04:54           0        7.62       0.101
  WS02006235           JUNCTION      0.00   522.25     0  04:57           0        7.73       0.124
  WS02006238           JUNCTION      0.00   418.18     0  05:00           0        4.16       0.166
  WS02006240           JUNCTION      0.00   416.55     0  05:00           0         4.1       0.229
  WS02006242           JUNCTION      0.00   416.32     0  05:00           0        4.07       0.265
  WS02006243           JUNCTION      0.00   415.99     0  05:00           0        4.04      -0.000
  WS02006245           JUNCTION      0.00   415.94     0  05:00           0        4.02       0.184
  WS02006247           JUNCTION      0.00   415.97     0  05:00           0        4.02       0.053
  WS02006248           JUNCTION      0.00   416.44     0  05:00           0        4.03      -0.050
  WS02006249           JUNCTION      0.00   431.05     0  04:33           0        4.34       0.077
  WS02006239           JUNCTION      0.00   417.67     0  05:00           0        4.13       0.134
  WS02006251           JUNCTION      0.08   414.84     0  04:33     0.00217        4.39       0.004
  WS02006252           JUNCTION      0.00   400.00     0  04:30           0        3.72       0.003
  WS02006253           JUNCTION      3.87   156.77     0  01:54      0.0129       0.667      -0.095
  WS02006256           JUNCTION      0.00   983.00     0  01:50           0        12.2      -0.006
  WS02004138           JUNCTION      0.00   380.00     0  00:00           0        10.3       0.063
  WS02004139           JUNCTION      0.32   395.85     0  00:00     0.00905        10.3       0.449
  WS02004407           JUNCTION      0.00   971.27     0  01:52           0        10.8       0.076
  WS02006228           JUNCTION      0.00   934.66     0  01:52           0          11       0.137
  WS02006229           JUNCTION      0.00   984.08     0  01:51           0          11       0.133
  WS02006280           JUNCTION      0.00   736.11     0  01:54           0        3.11       0.008
  WS02006284           JUNCTION      0.10   735.84     0  01:54      0.0027        3.11       0.020
  WS02006287           JUNCTION      0.00   735.63     0  01:54           0        3.11       0.023
  WSF200               JUNCTION      0.00   956.99     0  01:55           0        10.7       0.047
  HS02004901           JUNCTION     37.34    37.34     0  01:51       0.136       0.136       1.311
  HS02004881           JUNCTION     14.85   153.29     0  01:54       0.053       0.601       0.100
  HS02004876           JUNCTION     26.74   139.06     0  01:54       0.103       0.549       0.099
  HS02004870           JUNCTION     27.42   112.65     0  01:54         0.1       0.446       0.025
  HS02004862           JUNCTION     26.01    86.18     0  01:54       0.116       0.346       0.050
  HS02004856           JUNCTION     20.52    60.23     0  01:54      0.0756       0.231       0.629
  HS02004852           JUNCTION      0.00    40.37     0  01:54           0       0.155       0.036
  HS02004848           JUNCTION     56.97    56.97     0  01:56       0.261       0.261       0.018
  HS02004842           JUNCTION      0.00    18.18     0  02:06           0       0.119      12.306
  HS02004837           JUNCTION     52.39    67.87     0  01:54       0.353       0.459       0.177
  HS02004830           JUNCTION      0.15    67.98     0  01:54     0.00423       0.449       0.276
  HS02004824           JUNCTION     66.79   134.68     0  01:56       0.318       0.767       0.071
  HS02004817           JUNCTION      0.60   136.80     0  01:57      0.0169       0.783       2.175
  HS02004807           JUNCTION     50.62   183.90     0  01:55       0.184       0.952       0.460
  HS02004802           JUNCTION      0.00   183.88     0  01:56           0        0.95       0.417
  HS02004799           JUNCTION     40.40   470.76     0  01:53        0.15        1.87       0.159
  HS02004792           JUNCTION    183.39   430.98     0  01:53       0.729        1.72       0.023
  HS02004788           JUNCTION     59.53   248.80     0  01:53       0.273       0.991       0.039
  HS02004785           JUNCTION      0.15   189.56     0  01:53     0.00423        0.72       0.069
  HS02004777           JUNCTION      0.03   189.72     0  01:52    0.000846        0.72       0.728
  HS02004770           JUNCTION    153.57   190.38     0  01:52       0.587       0.722       0.429
  HS02004480           JUNCTION      0.00   554.34     0  01:53           0        2.18       0.044
  HS02004479           JUNCTION      0.00    83.76     0  01:53           0       0.323       0.229
  HS02004478           JUNCTION      0.00   735.58     0  01:54           0        3.11       0.010
  YS02001745           JUNCTION    446.25   446.25     0  02:16        3.95        3.95       0.292
  YS02001748           JUNCTION      0.04   451.15     0  02:16     0.00127        3.94       0.583
  YS02001751           JUNCTION      0.01   451.04     0  02:16     0.00031        3.92       0.615
  YS02001754           JUNCTION      0.26   451.90     0  02:16     0.00733         3.9       0.632
  YS02001762           JUNCTION      0.00   434.75     0  01:55           0        2.42       0.896
  YS02001765           JUNCTION      0.00   434.62     0  01:55           0        2.42       1.015
  YS02001767           JUNCTION      0.54   434.78     0  01:55      0.0151        2.45       1.479
  YS02001770           JUNCTION    558.16   785.00     0  02:41        4.36        5.46       0.576
  YS02001774           JUNCTION      0.00   785.35     0  02:41           0        4.09       0.615
  YS02001779           JUNCTION      0.01   785.20     0  02:41    0.000141        4.06       0.389
  YS02001882           JUNCTION      0.00    27.30     0  01:49           0      0.0234      10.436
  YS02001884           JUNCTION      0.00    45.57     0  01:48           0      0.0594      11.415
  YS02001759           JUNCTION    542.57   878.30     0  01:57        4.04        5.34       0.428
  YS02001887           JUNCTION    676.21   677.08     0  02:13        4.57         4.6       0.183
  YS02001890           JUNCTION      0.00   677.63     0  02:12           0        4.56       0.205
  YS02001898           JUNCTION      0.00   539.35     0  01:52           0        4.27       0.060
  YS02001901           JUNCTION      0.00   538.38     0  01:51           0        4.27       0.166
  YS02001904           JUNCTION      0.00   540.07     0  01:51           0        4.27       0.149
  YS02001907           JUNCTION      0.00  1180.30     0  01:54           0        9.98       0.250
  YS02001910           JUNCTION      0.00   659.58     0  01:54           0        5.72       0.201
  YS02001915           JUNCTION    394.70   658.95     0  01:54        3.28        5.77       0.105
  YS02001918           JUNCTION      0.00   361.75     0  01:54           0        2.52       0.058
  YS02001619           JUNCTION    388.44   388.44     0  02:16         3.3         3.3       0.372
  YS02001629           JUNCTION      0.00   219.50     0  01:48           0        1.43       2.041
  YS02001641           JUNCTION      0.00   455.44     0  01:48           0        5.09       0.413
  YS02001644           JUNCTION    424.99  1617.48     0  02:33        3.82        13.8       0.192
  YS02001652           JUNCTION      0.00   522.28     0  02:12           0        3.44       0.668
  YS02001655           JUNCTION      0.15   522.10     0  02:12     0.00434        3.46       0.729
  YS02001920           JUNCTION      2.87   360.70     0  01:54      0.0809         2.5       0.114
  YS02001923           JUNCTION      0.04   298.15     0  01:54     0.00106         2.4       0.042
  YS02001926           JUNCTION      0.05   239.88     0  01:54     0.00147        2.38       0.127
  YS02001929           JUNCTION    206.66   206.66     0  03:01        2.37        2.37       0.023
  YS02001658           JUNCTION      0.00   521.76     0  02:12           0        3.48       0.693
  YS02001661           JUNCTION      0.00   746.93     0  01:59           0        3.88      -0.101
  YS02001664           JUNCTION    496.40   496.40     0  02:16        3.49        3.88       0.177
  YS02001622           JUNCTION      0.00   389.18     0  02:16           0        3.29       0.967
  YS02001633           JUNCTION    431.52   456.73     0  01:48        3.93        5.24       0.609
  YS02001649           JUNCTION      0.00  1001.61     0  01:49           0         7.3       0.509
  YS02001757           JUNCTION      0.00  2148.83     0  01:55           0        10.4       0.885
  YS02001895           JUNCTION      0.00   538.86     0  01:52           0        4.28       0.125
  YS02001625           JUNCTION      0.00   434.71     0  02:16           0        3.34       1.188
  YS02163301           JUNCTION      0.00   221.85     0  01:45           0        1.42       1.711
  YS02163601           JUNCTION      0.11   456.07     0  01:48      0.0031        5.11       0.591
  YS02164001           JUNCTION      0.00   456.44     0  01:48           0        5.09       0.392
  YS02001647           JUNCTION      0.00   846.70     0  02:49           0        6.19       0.458
  YSB1154              JUNCTION     46.91    46.91     0  01:52        0.18       0.181       0.805
  YSB6556              JUNCTION      0.00    46.64     0  01:52           0       0.182       0.696
  YSB1174              JUNCTION     39.22    39.22     0  01:50       0.134       0.134       0.962
  YSB1171              JUNCTION      0.00    84.02     0  01:52           0       0.322       2.011
  YS02006553           JUNCTION      0.00   717.75     0  03:35           0        7.35       0.215
  YS02006561           JUNCTION      0.00  1083.67     0  01:52           0        11.5       0.006
  YS02006556           JUNCTION      0.00   717.85     0  03:35           0        7.36       0.158
  YS02006558           JUNCTION    590.63  1084.40     0  01:52        4.24        11.6       0.045
  YS02001783           JUNCTION      0.00  1063.77     0  01:52           0        11.5       0.020
  YS02001784           JUNCTION      1.06  1065.88     0  01:52      0.0299        11.6       0.030
  YS02001786           JUNCTION      0.06  1065.98     0  01:52     0.00159        11.6       0.029
  YS02001788           JUNCTION      0.07  1066.63     0  01:52       0.002        11.6       0.018
  YS02001790           JUNCTION      0.15  1060.39     0  01:52     0.00437        11.6       0.012
  YS02001791           JUNCTION      0.00  1059.85     0  01:52           0        11.6       0.006
  YS02001793           JUNCTION      0.00  1059.94     0  01:53           0        11.6      -0.027
  WSC                  OUTFALL       0.00  1349.55     0  02:02           0        21.3       0.000
  JK-storage           STORAGE       0.00  1059.56     0  01:52           0        11.7      -6.279
  CC-storage           STORAGE       0.00  2149.91     0  01:55           0        7.64       0.861
  XR-storage           STORAGE    1054.62  1054.62     0  03:01        15.5        16.1       0.002
  
  
  **********************
  Node Surcharge Summary
  **********************
  
  Surcharging occurs when water rises above the top of the highest conduit.
  ---------------------------------------------------------------------
                                               Max. Height   Min. Depth
                                   Hours       Above Crown    Below Rim
  Node                 Type      Surcharged         Meters       Meters
  ---------------------------------------------------------------------
  WS02004401           JUNCTION        0.93          0.307        1.353
  WS02004402           JUNCTION        1.00          0.289        1.451
  WS02004403           JUNCTION        1.02          0.265        1.765
  WS02004404           JUNCTION        1.53          0.308        2.472
  WS02004406           JUNCTION        1.27          0.203        2.247
  WS02004413           JUNCTION        0.47          0.031        2.169
  WS02004405           JUNCTION        1.38          0.277        2.523
  WS02006109           JUNCTION        3.80          1.010        0.810
  WS02006110           JUNCTION        2.30          0.952        0.898
  WS02006111           JUNCTION        0.36          0.285        1.585
  WS02006112           JUNCTION        2.57          0.671        1.009
  WS02006113           JUNCTION        0.40          0.724        1.206
  WS02006115           JUNCTION        0.60          0.312        1.938
  WS02006116           JUNCTION        0.62          0.291        1.999
  WS02006230           JUNCTION        2.00          0.894        0.676
  WS02006231           JUNCTION        2.54          0.895        0.635
  WS02006232           JUNCTION        3.84          1.005        0.475
  WS02006234           JUNCTION        3.32          0.870        0.370
  WS02006235           JUNCTION        3.54          0.888        0.402
  WS02006238           JUNCTION        3.62          0.893        0.537
  WS02006240           JUNCTION        3.12          0.733        0.657
  WS02006242           JUNCTION        3.24          0.727        0.093
  WS02006243           JUNCTION        2.49          0.592        0.178
  WS02006245           JUNCTION        2.20          0.512        0.338
  WS02006247           JUNCTION        2.20          0.495        0.265
  WS02006248           JUNCTION        1.82          0.380        0.000
  WS02006249           JUNCTION        1.91          0.390        0.000
  WS02006239           JUNCTION        3.34          0.796        0.494
  WS02006251           JUNCTION        0.85          0.244        0.936
  WS02006252           JUNCTION        2.14          0.436        0.664
  WS02006253           JUNCTION        0.91          0.304        2.176
  WS02006256           JUNCTION        6.97          2.050        0.000
  WS02006228           JUNCTION        3.76          1.099        1.101
  HS02004817           JUNCTION        0.15          0.010        1.730
  YS02001748           JUNCTION        6.04          0.527        0.663
  YS02001751           JUNCTION        6.08          0.712        0.488
  YS02001754           JUNCTION        6.14          0.823        0.327
  YS02001762           JUNCTION        6.19          1.064        0.086
  YS02001765           JUNCTION        6.18          1.011        0.089
  YS02001767           JUNCTION        6.18          0.965        0.065
  YS02001770           JUNCTION        6.18          0.916        0.004
  YS02001774           JUNCTION        6.19          0.995        0.055
  YS02001779           JUNCTION        6.13          0.680        0.000
  YS02001882           JUNCTION        1.79          0.638        0.192
  YS02001884           JUNCTION        1.81          0.678        0.192
  YS02001759           JUNCTION        6.20          1.105        0.105
  YS02001887           JUNCTION        1.86          0.764        0.186
  YS02001890           JUNCTION        1.89          0.760        0.000
  YS02001898           JUNCTION        1.76          0.535        0.205
  YS02001901           JUNCTION        1.84          0.677        0.193
  YS02001904           JUNCTION        1.82          0.640        0.210
  YS02001907           JUNCTION        2.40          0.950        0.000
  YS02001910           JUNCTION        1.92          0.819        0.281
  YS02001915           JUNCTION        1.78          0.672        0.328
  YS02001918           JUNCTION        1.63          0.423        0.387
  YS02001619           JUNCTION        6.09          0.551        0.059
  YS02001629           JUNCTION        6.08          0.470        0.000
  YS02001641           JUNCTION        6.18          0.937        0.163
  YS02001644           JUNCTION        6.18          0.920        0.000
  YS02001652           JUNCTION        6.15          0.946        0.184
  YS02001655           JUNCTION        6.10          0.842        0.358
  YS02001920           JUNCTION        1.65          0.526        0.614
  YS02001923           JUNCTION        0.01          0.096        0.724
  YS02001926           JUNCTION        0.01          0.146        0.754
  YS02001658           JUNCTION        6.05          0.739        0.561
  YS02001661           JUNCTION        0.14          0.588        0.802
  YS02001622           JUNCTION        6.10          0.552        0.068
  YS02001633           JUNCTION        6.17          0.942        0.118
  YS02001649           JUNCTION        6.19          1.050        0.000
  YS02001757           JUNCTION        6.23          1.207        0.003
  YS02001895           JUNCTION        1.77          0.570        0.180
  YS02001625           JUNCTION        6.15          0.780        0.000
  YS02163301           JUNCTION        6.17          0.894        0.136
  YS02163601           JUNCTION        6.20          1.008        0.072
  YS02164001           JUNCTION        6.17          0.932        0.168
  YS02001647           JUNCTION        6.15          0.805        0.095
  YS02006553           JUNCTION        2.48          0.971        0.219
  YS02006561           JUNCTION        1.65          0.281        0.869
  YS02006556           JUNCTION        2.10          0.895        0.455
  YS02006558           JUNCTION        2.07          0.881        0.519
  YS02001783           JUNCTION        1.89          0.667        0.933
  YS02001784           JUNCTION        1.87          0.604        0.886
  YS02001786           JUNCTION        1.78          0.445        0.985
  YS02001788           JUNCTION        1.68          0.309        1.171
  YS02001790           JUNCTION        2.50          0.970        0.187
  YS02001791           JUNCTION        2.64          1.920        0.000
  YS02001793           JUNCTION        3.01          1.539        1.061
  
  
  *********************
  Node Flooding Summary
  *********************
  
  Flooding refers to all water that overflows a node, whether it ponds or not.
  --------------------------------------------------------------------------
                                                             Total   Maximum
                                 Maximum   Time of Max       Flood    Ponded
                        Hours       Rate    Occurrence      Volume     Depth
  Node                 Flooded       LPS   days hr:min    10^6 ltr    Meters
  --------------------------------------------------------------------------
  WS02006248              0.23     60.82      0  01:53       0.024     0.000
  WS02006249              0.89    212.73      0  02:10       0.304     0.000
  WS02006256              4.21    838.49      0  01:52       8.543     0.000
  YS02001779              3.38    785.07      0  02:41       4.039     0.000
  YS02001890              0.80    162.16      0  02:12       0.270     0.000
  YS02001907              1.50    716.73      0  02:16       2.618     0.000
  YS02001629              0.01     16.14      0  01:46       0.000     0.000
  YS02001644              5.58   1617.48      0  02:33      12.490     0.000
  YS02001649              0.30    154.56      0  02:41       0.094     0.000
  YS02001625              2.17    434.70      0  02:16       1.967     0.000
  YS02001791              0.01    202.05      0  05:17       0.000     0.000
  JK-storage              0.38    419.97      0  04:20       0.288     0.000
  XR-storage              4.62    674.59      0  03:01       4.983     0.000
  
  
  **********************
  Storage Volume Summary
  **********************
  
  --------------------------------------------------------------------------------------------------
                         Average     Avg  Evap Exfil       Maximum     Max    Time of Max    Maximum
                          Volume    Pcnt  Pcnt  Pcnt        Volume    Pcnt     Occurrence    Outflow
  Storage Unit           1000 m3    Full  Loss  Loss       1000 m3    Full    days hr:min        LPS
  --------------------------------------------------------------------------------------------------
  JK-storage               0.173      59     0     0         0.291     100       0  04:18     983.00
  CC-storage               3.438      22     0     0         4.084      26       0  02:37     400.00
  XR-storage               0.855      92     0     0         0.926     100       0  02:10     380.00
  
  
  ***********************
  Outfall Loading Summary
  ***********************
  
  ---------------------------------------------------------------------------------------------------------------------------------
                         Flow       Avg       Max       Total         Total         Total         Total         Total         Total
                         Freq      Flow      Flow      Volume           COD            SS            TN            TP         NH4-N
  Outfall Node           Pcnt       LPS       LPS    10^6 ltr            kg            kg            kg            kg            kg
  ---------------------------------------------------------------------------------------------------------------------------------
  WSC                   99.98    830.36   1349.55      21.334      2643.502      4716.363       144.763        16.540        86.240
  ---------------------------------------------------------------------------------------------------------------------------------
  System                99.98    830.36   1349.55      21.334      2643.502      4716.363       144.763        16.540        86.240
  
  
  ********************
  Link Flow Summary
  ********************
  
  -----------------------------------------------------------------------------
                                 Maximum  Time of Max   Maximum    Max/    Max/
                                  |Flow|   Occurrence   |Veloc|    Full    Full
  Link                 Type          LPS  days hr:min     m/sec    Flow   Depth
  -----------------------------------------------------------------------------
  WS02003066WSF200     CONDUIT    956.99     0  01:55      3.01    0.16    0.32
  WS02006287WS02006284 CONDUIT    735.75     0  01:54      2.45    0.34    0.41
  WS02006284WS02006280 CONDUIT    736.11     0  01:54      2.68    0.31    0.38
  WS02006280WS02006229 CONDUIT    736.22     0  01:54      4.16    0.16    0.57
  WS02006229WS02006228 CONDUIT    934.66     0  01:52      1.86    3.10    1.00
  WS02006256WS02006235 CONDUIT    288.92     0  00:00      4.23    3.06    1.00
  WS02006253WS02006251 CONDUIT    167.59     0  01:51      0.72    0.50    1.00
  WS02006252WS02006251 CONDUIT    404.73     0  04:33      3.22    1.49    1.00
  WS02006251WS02006249 CONDUIT    431.05     0  04:33      1.12    1.24    1.00
  WS02006249WS02006248 CONDUIT    416.44     0  05:00      1.14    2.28    1.00
  WS02006248WS02006247 CONDUIT    415.97     0  05:00      1.11    0.91    1.00
  WS02006247WS02006245 CONDUIT    415.94     0  05:00      1.08    3.30    1.00
  WS02006245WS02006243 CONDUIT    415.99     0  05:00      1.10    1.23    1.00
  WS02006243WS02006242 CONDUIT    416.32     0  05:00      1.08    0.89    1.00
  WS02006242WS02006240 CONDUIT    416.55     0  05:00      1.08    1.65    1.00
  WS02006240WS02006239 CONDUIT    417.67     0  05:00      1.09    1.31    1.00
  WS02006239WS02006238 CONDUIT    418.18     0  05:00      1.09    1.34    1.00
  WS02006238WS02006235 CONDUIT    419.33     0  05:00      1.45    0.94    1.00
  WS02006235WS02006234 CONDUIT    521.15     0  04:54      1.35    5.50    1.00
  WS02006234WS02006232 CONDUIT    520.84     0  04:57      1.39    1.05    1.00
  WS02006232WS02006231 CONDUIT    520.96     0  04:51      1.35    1.09    1.00
  WS02006231WS02006230 CONDUIT    520.93     0  04:57      1.38    7.90    1.00
  WS02006230WS02006229 CONDUIT    531.01     0  04:54      1.38   11.82    1.00
  WS02006228WS02006109 CONDUIT    934.67     0  01:53      1.86    4.08    1.00
  WS02006116WS02004401 CONDUIT    968.35     0  01:52      1.23    1.33    1.00
  WS02006115WS02006116 CONDUIT    968.33     0  01:52      1.23    1.24    1.00
  WS02006113WS02006111 CONDUIT    936.14     0  01:53      2.64    1.12    1.00
  WS02006112WS02006115 CONDUIT    966.83     0  01:52      1.23    0.57    1.00
  WS02006111WS02006112 CONDUIT    936.47     0  01:52      1.86    0.45    1.00
  WS02006110WS02006113 CONDUIT    935.67     0  01:53      1.86    0.85    1.00
  WS02006109WS02006110 CONDUIT    936.04     0  01:53      1.86    1.80    1.00
  WS02004411WS02004412 CONDUIT    956.10     0  01:54      1.26    1.36    0.93
  WS02004401WS02004402 CONDUIT    968.41     0  01:52      1.23    1.16    1.00
  WS02004413WS02003067 CONDUIT    956.62     0  01:54      1.57    0.41    0.72
  WS02004412WS02004413 CONDUIT    956.42     0  01:54      1.24    0.64    0.96
  WS02004410WS02004411 CONDUIT    954.55     0  01:54      1.24    1.30    0.95
  WS02004409WS02004410 CONDUIT    956.61     0  01:53      1.24    1.24    0.97
  WS02004407WS02004409 CONDUIT    968.40     0  01:52      1.73    0.34    0.69
  WS02004406WS02004407 CONDUIT    971.27     0  01:52      1.65    0.43    0.70
  WS02004405WS02004406 CONDUIT    970.76     0  01:52      1.24    1.91    1.00
  WS02004404WS02004405 CONDUIT    970.91     0  01:52      1.24    9.51    1.00
  WS02004403WS02004404 CONDUIT    969.34     0  01:52      1.23    0.70    1.00
  WS02004402WS02004403 CONDUIT    969.25     0  01:52      1.23    1.39    1.00
  WS02004139WS02001211 CONDUIT    383.47     0  02:27      0.90    0.48    0.64
  WS02004138WS02004139 CONDUIT    395.52     0  00:00      3.64    0.08    0.47
  WS02003067WS02003066 CONDUIT    956.84     0  01:55      1.67    0.31    0.51
  WS02001213WS02003059 CONDUIT    400.97     0  02:27      0.89    0.66    0.88
  WS02001212WS02001213 CONDUIT    397.31     0  02:27      1.32    0.61    0.56
  WS02001211WS02001212 CONDUIT    394.17     0  02:28      0.78    0.30    0.72
  WS02003072WS02003073 CONDUIT   1347.10     0  02:01      1.97    2.91    0.58
  WS02003069WS02003072 CONDUIT   1347.00     0  02:01      1.82    0.65    0.62
  WS02003060WS02003069 CONDUIT   1346.66     0  02:00      2.03    0.53    0.57
  WS02003059WS02003060 CONDUIT    405.28     0  02:27      0.95    0.26    0.78
  HS02004901HS02004770 CONDUIT     36.85     0  01:52      0.10    0.14    0.54
  HS02004876HS02004881 CONDUIT    139.08     0  01:54      1.26    1.48    0.16
  HS02004870HS02004876 CONDUIT    112.62     0  01:54      0.85    0.07    0.19
  HS02004842HS02004848 CONDUIT     18.18     0  02:06      0.08    0.01    0.34
  HS02004837HS02004842 CONDUIT     18.64     0  02:07      0.42    0.01    0.35
  HS02004830HS02004837 CONDUIT     67.83     0  01:54      0.68    0.07    0.14
  HS02004824HS02004830 CONDUIT     68.05     0  01:56      0.62    0.09    0.18
  HS02004817HS02004824 CONDUIT    136.20     0  01:57      0.32    0.06    0.60
  HS02004770HS02004777 CONDUIT    189.69     0  01:52      0.49    0.35    0.55
  HS02004799HS02004480 CONDUIT    470.63     0  01:53      1.09    0.59    0.62
  HS02004792HS02004799 CONDUIT    430.88     0  01:53      1.22    0.26    0.50
  HS02004788HS02004792 CONDUIT    248.73     0  01:54      1.29    0.16    0.28
  HS02004785HS02004788 CONDUIT    189.53     0  01:53      0.92    1.43    0.30
  HS02004777HS02004785 CONDUIT    189.41     0  01:53      0.59    0.23    0.46
  HS02004480HS02004478 CONDUIT    554.38     0  01:53      1.59    2.33    0.50
  HS02004479HS02004480 CONDUIT     83.72     0  01:53      0.37    0.08    0.59
  HS02004862HS02004870 CONDUIT     86.18     0  01:55      0.82    0.09    0.15
  HS02004848HS02004852 CONDUIT     40.37     0  01:54      0.54    0.05    0.11
  HS02004856HS02004862 CONDUIT     60.18     0  01:54      0.61    0.06    0.14
  HS02004852HS02004856 CONDUIT     40.43     0  01:55      0.35    0.05    0.17
  HS02004802HS02004478 CONDUIT    184.69     0  01:57      0.53    0.16    0.50
  HS02004478WS02006287 CONDUIT    735.63     0  01:54      2.18    0.21    0.38
  HS02004817HS02004807 CONDUIT    136.98     0  01:57      0.26    0.08    0.77
  HS02004807HS02004802 CONDUIT    183.88     0  01:56      0.47    0.35    0.56
  YS02001759YS02001757 CONDUIT    878.72     0  01:57      1.12    0.62    1.00
  YS02001762YS02001759 CONDUIT    434.90     0  01:55      0.55    0.50    1.00
  YS02001765YS02001762 CONDUIT    434.75     0  01:55      0.55    0.41    1.00
  YS02001770YS02001767 CONDUIT    434.24     0  01:55      0.55    1.72    1.00
  YS02001774YS02001770 CONDUIT    785.35     0  02:41      1.00    0.50    1.00
  YS02001779YS02001774 CONDUIT    785.19     0  02:41      1.00    0.40    1.00
  YS02001649YS02001757 CONDUIT   1000.80     0  01:49      1.27    0.61    1.00
  YS02001767YS02001765 CONDUIT    434.62     0  01:55      0.55    0.55    1.00
  YS02006561YS02001783 CONDUIT   1063.77     0  01:52      2.14    0.55    1.00
  YS02001783YS02001784 CONDUIT   1064.82     0  01:52      2.12    1.47    1.00
  YS02001784YS02001785 CONDUIT   1065.93     0  01:52      2.12    2.48    1.00
  YS02001788YS02001790 CONDUIT   1060.24     0  01:52      2.44    0.78    1.00
  YS02001790YS02001791 CONDUIT   1059.85     0  01:52      2.91    1.15    1.00
  YS02001791YS02001793 CONDUIT   1059.94     0  01:53      5.76    0.46    1.00
  YS02001910YS02001907 CONDUIT    659.99     0  01:54      0.84    0.37    1.00
  YS02001786YS02001788 CONDUIT   1066.56     0  01:52      2.31    2.06    1.00
  YS02001915YS02001910 CONDUIT    659.58     0  01:54      0.84    0.33    1.00
  YS02001918YS02001915 CONDUIT    363.10     0  01:54      0.48    0.20    1.00
  YS02001923YS02001920 CONDUIT    357.83     0  01:54      0.81    0.16    1.00
  YS02001926YS02001923 CONDUIT    298.11     0  01:54      0.92    0.43    1.00
  YS02001929YS02001926 CONDUIT    239.83     0  01:54      0.98    0.11    0.96
  YS02001920YS02001918 CONDUIT    361.75     0  01:54      0.77    0.35    1.00
  YS02001629YS02163301 CONDUIT    221.85     0  01:45      0.28    0.27    1.00
  YS02001619YS02001622 CONDUIT    389.18     0  02:16      0.74    0.57    1.00
  YS02001622YS02001625 CONDUIT    388.65     0  02:16      0.49    0.21    1.00
  YS02001625YS02001629 CONDUIT    219.50     0  01:48      0.29    0.10    1.00
  YS02163301YS02001633 CONDUIT    223.59     0  01:45      0.28    0.21    1.00
  YS02163601YS02164001 CONDUIT    456.44     0  01:48      0.58    0.40    1.00
  YS02164001YS02001641 CONDUIT    455.44     0  01:48      0.58    0.62    1.00
  YS02001641YS02001644 CONDUIT    455.23     0  01:48      0.58    1.47    1.00
  YS02001647YS02001649 CONDUIT    846.70     0  02:49      1.08    0.45    1.00
  YS02006553YS02006556 CONDUIT    717.85     0  03:35      0.91    0.61    1.00
  YS02006556YS02006558 CONDUIT    718.04     0  03:35      0.91    0.57    1.00
  YSB6556YSB1171       CONDUIT     46.62     0  01:54      0.14    0.05    0.84
  YS02001907YS02006553 CONDUIT    717.75     0  03:35      0.80    0.84    1.00
  YS02006558YS02006561 CONDUIT   1083.67     0  01:52      3.83    2.40    1.00
  YS02001633YS02163601 CONDUIT    455.96     0  01:48      0.58    0.48    1.00
  YS02001644YS02001647 CONDUIT    846.70     0  02:49      1.08    0.50    1.00
  YS02001745YS02001748 CONDUIT    451.10     0  02:16      1.67    0.17    0.99
  YS02001748YS02001751 CONDUIT    451.03     0  02:16      1.21    0.23    1.00
  YS02001751YS02001754 CONDUIT    451.64     0  02:16      1.02    0.22    1.00
  YS02001754YS02001757 CONDUIT    451.51     0  02:16      0.57    0.18    1.00
  YS02001882YS02001884 CONDUIT     27.30     0  01:49      0.16    0.03    1.00
  YS02001884YS02001887 CONDUIT     45.57     0  01:48      0.12    0.06    1.00
  YS02001890YS02001895 CONDUIT    538.86     0  01:52      0.69    0.25    1.00
  YS02001895YS02001898 CONDUIT    539.35     0  01:52      0.69    0.94    1.00
  YS02001898YS02001901 CONDUIT    538.38     0  01:51      0.69    0.35    1.00
  YS02001901YS02001904 CONDUIT    540.07     0  01:51      0.69    0.84    1.00
  YS02001904YS02001907 CONDUIT    542.90     0  01:51      0.69    0.19    1.00
  YS02001887YS02001890 CONDUIT    677.63     0  02:12      0.86    1.16    1.00
  YS02001652YS02001649 CONDUIT    522.87     0  02:10      0.71    0.26    1.00
  YS02001655YS02001652 CONDUIT    522.28     0  02:12      1.09    0.25    1.00
  YS02001658YS02001655 CONDUIT    521.95     0  02:12      1.41    0.22    1.00
  YS02001661YS02001658 CONDUIT    521.76     0  02:12      1.78    0.20    1.00
  YS02001664YS02001661 CONDUIT    746.93     0  01:59      1.69    0.23    0.77
  YSB1154YSB6556       CONDUIT     46.64     0  01:52      0.16    0.08    0.75
  YSB1174YSB1171       CONDUIT     38.37     0  01:50      0.11    0.06    0.87
  YSB1171HS02004479    CONDUIT     83.76     0  01:53      0.54    0.06    0.70
  HS02004881HS02006253 CONDUIT    153.29     0  01:54      2.62    0.03    0.54
  YS02001793JiankangQianchi CONDUIT   1059.56     0  01:52     14.46    0.08    1.00
  YS02001757CaochengTiaoxuchi CONDUIT   2149.91     0  01:55      3.55    0.94    1.00
  WSF200WS02003060     CONDUIT    956.96     0  01:55      1.97    0.21    0.45
  1                    CONDUIT   1349.55     0  02:02      3.60    0.47    0.48
  CC-Pump-1            PUMP       200.00     0  02:50              1.00
  CC-Pump-2            PUMP       200.00     0  04:30              1.00
  JK-Pump-1            PUMP       300.00     0  00:00              1.00
  JK-Pump-2            PUMP       683.00     0  01:50              1.00
  XR-Pump-1            PUMP        95.00     0  00:00              1.00
  XR-Pump-2            PUMP        95.00     0  00:00              1.00
  XR-Pump-3            PUMP        95.00     0  00:00              1.00
  XR-Pump-4            PUMP        95.00     0  00:00              1.00
  
  
  ***************************
  Flow Classification Summary
  ***************************
  
  -------------------------------------------------------------------------------------
                      Adjusted    ---------- Fraction of Time in Flow Class ---------- 
                       /Actual         Up    Down  Sub   Sup   Up    Down  Norm  Inlet 
  Conduit               Length    Dry  Dry   Dry   Crit  Crit  Crit  Crit  Ltd   Ctrl  
  -------------------------------------------------------------------------------------
  WS02003066WSF200        1.00   0.01  0.02  0.00  0.00  0.97  0.00  0.00  0.54  0.00
  WS02006287WS02006284    1.00   0.03  0.01  0.00  0.59  0.37  0.00  0.00  0.63  0.00
  WS02006284WS02006280    1.00   0.04  0.00  0.00  0.00  0.00  0.00  0.96  0.00  0.00
  WS02006280WS02006229    1.00   0.04  0.00  0.00  0.02  0.02  0.00  0.92  0.00  0.00
  WS02006229WS02006228    1.00   0.00  0.00  0.00  1.00  0.00  0.00  0.00  0.00  0.00
  WS02006256WS02006235    1.00   0.00  0.00  0.00  1.00  0.00  0.00  0.00  0.00  0.00
  WS02006253WS02006251    1.00   0.02  0.01  0.00  0.96  0.00  0.01  0.00  0.00  0.00
  WS02006252WS02006251    1.00   0.08  0.00  0.00  0.13  0.01  0.78  0.00  0.00  0.00
  WS02006251WS02006249    1.00   0.00  0.00  0.00  1.00  0.00  0.00  0.00  0.18  0.00
  WS02006249WS02006248    1.00   0.00  0.01  0.00  0.93  0.00  0.06  0.00  0.00  0.00
  WS02006248WS02006247    1.00   0.01  0.00  0.00  0.99  0.00  0.00  0.00  0.09  0.00
  WS02006247WS02006245    1.00   0.00  0.00  0.00  0.99  0.00  0.00  0.01  0.00  0.00
  WS02006245WS02006243    1.00   0.00  0.00  0.00  0.97  0.00  0.00  0.03  0.00  0.00
  WS02006243WS02006242    1.00   0.00  0.00  0.00  1.00  0.00  0.00  0.00  0.19  0.00
  WS02006242WS02006240    1.00   0.00  0.00  0.00  1.00  0.00  0.00  0.00  0.00  0.00
  WS02006240WS02006239    1.00   0.00  0.00  0.00  0.96  0.00  0.00  0.04  0.01  0.00
  WS02006239WS02006238    1.00   0.00  0.00  0.00  1.00  0.00  0.00  0.00  0.10  0.00
  WS02006238WS02006235    1.00   0.00  0.00  0.00  1.00  0.00  0.00  0.00  0.00  0.00
  WS02006235WS02006234    1.00   0.00  0.00  0.00  0.98  0.00  0.02  0.00  0.00  0.00
  WS02006234WS02006232    1.00   0.00  0.00  0.00  1.00  0.00  0.00  0.00  0.06  0.00
  WS02006232WS02006231    1.00   0.00  0.00  0.00  1.00  0.00  0.00  0.00  0.00  0.00
  WS02006231WS02006230    1.00   0.00  0.00  0.00  0.73  0.00  0.27  0.00  0.00  0.00
  WS02006230WS02006229    1.00   0.00  0.00  0.00  1.00  0.00  0.00  0.00  0.00  0.00
  WS02006228WS02006109    1.00   0.00  0.00  0.00  1.00  0.00  0.00  0.00  0.00  0.00
  WS02006116WS02004401    1.00   0.01  0.00  0.00  0.99  0.00  0.00  0.00  0.00  0.00
  WS02006115WS02006116    1.00   0.01  0.00  0.00  0.99  0.00  0.00  0.00  0.00  0.00
  WS02006113WS02006111    1.00   0.01  0.00  0.00  0.05  0.94  0.00  0.00  0.15  0.00
  WS02006112WS02006115    1.00   0.01  0.00  0.00  0.99  0.00  0.00  0.00  0.00  0.00
  WS02006111WS02006112    1.00   0.01  0.00  0.00  0.99  0.00  0.00  0.00  0.81  0.00
  WS02006110WS02006113    1.00   0.00  0.00  0.00  0.99  0.00  0.00  0.00  0.00  0.00
  WS02006109WS02006110    1.00   0.00  0.00  0.00  0.99  0.00  0.00  0.00  0.00  0.00
  WS02004411WS02004412    1.00   0.02  0.00  0.00  0.98  0.00  0.00  0.00  0.00  0.00
  WS02004401WS02004402    1.00   0.01  0.00  0.00  0.99  0.00  0.00  0.00  0.00  0.00
  WS02004413WS02003067    1.00   0.02  0.01  0.00  0.00  0.00  0.98  0.00  0.00  0.00
  WS02004412WS02004413    1.00   0.02  0.00  0.00  0.98  0.00  0.00  0.00  0.01  0.00
  WS02004410WS02004411    1.00   0.01  0.00  0.00  0.99  0.00  0.00  0.00  0.00  0.00
  WS02004409WS02004410    1.00   0.01  0.00  0.00  0.99  0.00  0.00  0.00  0.02  0.00
  WS02004407WS02004409    1.00   0.01  0.00  0.00  0.98  0.00  0.00  0.00  0.95  0.00
  WS02004406WS02004407    1.00   0.00  0.01  0.00  0.99  0.00  0.00  0.00  0.00  0.00
  WS02004405WS02004406    1.00   0.00  0.00  0.00  1.00  0.00  0.00  0.00  0.00  0.00
  WS02004404WS02004405    1.00   0.00  0.00  0.00  1.00  0.00  0.00  0.00  0.00  0.00
  WS02004403WS02004404    1.00   0.00  0.01  0.00  0.99  0.00  0.00  0.00  0.00  0.00
  WS02004402WS02004403    1.00   0.01  0.00  0.00  0.99  0.00  0.00  0.00  0.00  0.00
  WS02004139WS02001211    1.00   0.00  0.00  0.00  1.00  0.00  0.00  0.00  0.00  0.00
  WS02004138WS02004139    1.00   0.00  0.00  0.00  1.00  0.00  0.00  0.00  1.00  0.00
  WS02003067WS02003066    1.00   0.02  0.00  0.00  0.97  0.00  0.00  0.00  0.00  0.00
  WS02001213WS02003059    1.00   0.00  0.00  0.00  1.00  0.00  0.00  0.00  0.00  0.00
  WS02001212WS02001213    1.00   0.00  0.00  0.00  0.94  0.00  0.06  0.00  0.00  0.00
  WS02001211WS02001212    1.00   0.00  0.00  0.00  1.00  0.00  0.00  0.00  0.00  0.00
  WS02003072WS02003073    1.00   0.00  0.00  0.00  0.00  0.00  0.00  1.00  0.00  0.00
  WS02003069WS02003072    1.00   0.00  0.00  0.00  1.00  0.00  0.00  0.00  0.10  0.00
  WS02003060WS02003069    1.00   0.00  0.00  0.00  0.99  0.01  0.00  0.00  0.07  0.00
  WS02003059WS02003060    1.00   0.00  0.00  0.00  1.00  0.00  0.00  0.00  0.01  0.00
  HS02004901HS02004770    1.00   0.03  0.00  0.00  0.97  0.00  0.00  0.00  0.00  0.00
  HS02004876HS02004881    1.00   0.01  0.00  0.00  0.90  0.09  0.00  0.00  0.00  0.00
  HS02004870HS02004876    1.00   0.00  0.00  0.00  0.99  0.00  0.00  0.00  0.95  0.00
  HS02004842HS02004848    1.00   0.00  0.03  0.00  0.97  0.00  0.00  0.00  0.56  0.00
  HS02004837HS02004842    1.00   0.00  0.00  0.00  1.00  0.00  0.00  0.00  0.11  0.00
  HS02004830HS02004837    1.00   0.00  0.00  0.00  1.00  0.00  0.00  0.00  0.99  0.00
  HS02004824HS02004830    1.00   0.00  0.00  0.00  1.00  0.00  0.00  0.00  0.03  0.00
  HS02004817HS02004824    1.00   0.00  0.00  0.00  1.00  0.00  0.00  0.00  0.92  0.00
  HS02004770HS02004777    1.00   0.00  0.03  0.00  0.97  0.00  0.00  0.00  0.02  0.00
  HS02004799HS02004480    1.00   0.00  0.01  0.00  0.96  0.00  0.03  0.00  0.00  0.00
  HS02004792HS02004799    1.00   0.00  0.00  0.00  1.00  0.00  0.00  0.00  0.98  0.00
  HS02004788HS02004792    1.00   0.00  0.00  0.00  1.00  0.00  0.00  0.00  0.98  0.00
  HS02004785HS02004788    1.00   0.00  0.00  0.00  1.00  0.00  0.00  0.00  0.00  0.00
  HS02004777HS02004785    1.00   0.00  0.00  0.00  1.00  0.00  0.00  0.00  0.11  0.00
  HS02004480HS02004478    1.00   0.03  0.00  0.00  0.65  0.00  0.00  0.32  0.00  0.00
  HS02004479HS02004480    1.00   0.01  0.00  0.00  0.99  0.00  0.00  0.00  0.11  0.00
  HS02004862HS02004870    1.00   0.00  0.00  0.00  1.00  0.00  0.00  0.00  0.03  0.00
  HS02004848HS02004852    1.00   0.03  0.00  0.00  0.97  0.00  0.00  0.00  0.79  0.00
  HS02004856HS02004862    1.00   0.00  0.04  0.00  0.96  0.00  0.00  0.00  0.84  0.00
  HS02004852HS02004856    1.00   0.03  0.00  0.00  0.97  0.00  0.00  0.00  0.77  0.00
  HS02004802HS02004478    1.00   0.03  0.00  0.00  0.97  0.00  0.00  0.00  0.02  0.00
  HS02004478WS02006287    1.00   0.04  0.00  0.00  0.72  0.24  0.00  0.00  0.62  0.00
  HS02004817HS02004807    1.00   0.00  0.03  0.00  0.97  0.00  0.00  0.00  0.01  0.00
  HS02004807HS02004802    1.00   0.03  0.00  0.00  0.96  0.00  0.00  0.00  0.00  0.00
  YS02001759YS02001757    1.00   0.00  0.00  0.00  1.00  0.00  0.00  0.00  0.15  0.00
  YS02001762YS02001759    1.00   0.00  0.00  0.00  1.00  0.00  0.00  0.00  0.02  0.00
  YS02001765YS02001762    1.00   0.00  0.00  0.00  1.00  0.00  0.00  0.00  0.13  0.00
  YS02001770YS02001767    1.00   0.00  0.00  0.00  1.00  0.00  0.00  0.00  0.00  0.00
  YS02001774YS02001770    1.00   0.00  0.03  0.00  0.97  0.00  0.00  0.00  0.02  0.00
  YS02001779YS02001774    1.00   0.00  0.00  0.00  1.00  0.00  0.00  0.00  0.17  0.00
  YS02001649YS02001757    1.00   0.00  0.00  0.00  1.00  0.00  0.00  0.00  0.15  0.00
  YS02001767YS02001765    1.00   0.00  0.00  0.00  1.00  0.00  0.00  0.00  0.00  0.00
  YS02006561YS02001783    1.00   0.04  0.00  0.00  0.43  0.52  0.00  0.00  0.43  0.00
  YS02001783YS02001784    1.00   0.00  0.04  0.00  0.96  0.00  0.00  0.00  0.00  0.00
  YS02001784YS02001785    1.00   0.00  0.00  0.00  1.00  0.00  0.00  0.00  0.16  0.00
  YS02001788YS02001790    1.00   0.00  0.00  0.00  0.49  0.51  0.00  0.00  0.37  0.00
  YS02001790YS02001791    1.00   0.00  0.00  0.00  0.47  0.53  0.00  0.00  0.41  0.00
  YS02001791YS02001793    1.00   0.00  0.00  0.00  0.52  0.48  0.00  0.00  0.03  0.00
  YS02001910YS02001907    1.00   0.00  0.00  0.00  0.99  0.00  0.00  0.01  0.12  0.00
  YS02001786YS02001788    1.00   0.00  0.00  0.00  0.46  0.54  0.00  0.00  0.00  0.00
  YS02001915YS02001910    1.00   0.00  0.00  0.00  0.99  0.01  0.00  0.00  0.13  0.00
  YS02001918YS02001915    1.00   0.00  0.00  0.00  0.99  0.01  0.00  0.00  0.50  0.00
  YS02001923YS02001920    1.00   0.00  0.00  0.00  1.00  0.00  0.00  0.00  0.74  0.00
  YS02001926YS02001923    1.00   0.00  0.02  0.00  0.28  0.00  0.70  0.00  0.00  0.00
  YS02001929YS02001926    1.00   0.00  0.03  0.00  0.97  0.00  0.00  0.00  0.65  0.00
  YS02001920YS02001918    1.00   0.00  0.00  0.00  1.00  0.00  0.00  0.00  0.00  0.00
  YS02001629YS02163301    1.00   0.04  0.00  0.00  0.96  0.00  0.00  0.00  0.00  0.00
  YS02001619YS02001622    1.00   0.03  0.00  0.00  0.97  0.00  0.00  0.00  0.00  0.00
  YS02001622YS02001625    1.00   0.03  0.00  0.00  0.97  0.00  0.00  0.00  0.03  0.00
  YS02001625YS02001629    1.00   0.03  0.01  0.00  0.95  0.00  0.01  0.00  0.00  0.00
  YS02163301YS02001633    1.00   0.00  0.04  0.00  0.96  0.00  0.00  0.00  0.00  0.00
  YS02163601YS02164001    1.00   0.00  0.02  0.00  0.98  0.00  0.00  0.00  0.00  0.00
  YS02164001YS02001641    1.00   0.00  0.02  0.00  0.98  0.00  0.00  0.00  0.06  0.00
  YS02001641YS02001644    1.00   0.00  0.00  0.00  1.00  0.00  0.00  0.00  0.00  0.00
  YS02001647YS02001649    1.00   0.00  0.04  0.00  0.96  0.00  0.00  0.00  0.01  0.00
  YS02006553YS02006556    1.00   0.00  0.00  0.00  1.00  0.00  0.00  0.00  0.03  0.00
  YS02006556YS02006558    1.00   0.00  0.00  0.00  1.00  0.00  0.00  0.00  0.00  0.00
  YSB6556YSB1171          1.00   0.01  0.02  0.00  0.97  0.00  0.00  0.00  0.00  0.00
  YS02001907YS02006553    1.00   0.00  0.01  0.00  0.99  0.00  0.00  0.00  0.00  0.00
  YS02006558YS02006561    1.00   0.04  0.00  0.00  0.27  0.69  0.00  0.00  0.45  0.00
  YS02001633YS02163601    1.00   0.00  0.00  0.00  1.00  0.00  0.00  0.00  0.15  0.00
  YS02001644YS02001647    1.00   0.00  0.04  0.00  0.96  0.00  0.00  0.00  0.00  0.00
  YS02001745YS02001748    1.00   0.00  0.00  0.00  0.93  0.00  0.00  0.06  0.01  0.00
  YS02001748YS02001751    1.00   0.00  0.00  0.00  0.98  0.02  0.00  0.00  0.14  0.00
  YS02001751YS02001754    1.00   0.00  0.00  0.00  0.95  0.00  0.00  0.05  0.01  0.00
  YS02001754YS02001757    1.00   0.00  0.00  0.00  1.00  0.00  0.00  0.00  0.17  0.00
  YS02001882YS02001884    1.00   0.04  0.00  0.00  0.96  0.00  0.00  0.00  0.00  0.00
  YS02001884YS02001887    1.00   0.02  0.01  0.00  0.97  0.00  0.00  0.00  0.00  0.00
  YS02001890YS02001895    1.00   0.00  0.04  0.00  0.96  0.00  0.00  0.00  0.00  0.00
  YS02001895YS02001898    1.00   0.04  0.00  0.00  0.95  0.00  0.01  0.00  0.00  0.00
  YS02001898YS02001901    1.00   0.04  0.00  0.00  0.96  0.00  0.00  0.00  0.01  0.00
  YS02001901YS02001904    1.00   0.04  0.00  0.00  0.96  0.00  0.00  0.00  0.00  0.00
  YS02001904YS02001907    1.00   0.00  0.04  0.00  0.96  0.00  0.00  0.00  0.00  0.00
  YS02001887YS02001890    1.00   0.00  0.00  0.00  0.99  0.00  0.01  0.00  0.00  0.00
  YS02001652YS02001649    1.00   0.00  0.00  0.00  1.00  0.00  0.00  0.00  0.15  0.00
  YS02001655YS02001652    1.00   0.00  0.00  0.00  0.95  0.00  0.00  0.05  0.01  0.00
  YS02001658YS02001655    1.00   0.00  0.04  0.00  0.94  0.02  0.00  0.00  0.02  0.00
  YS02001661YS02001658    1.00   0.04  0.00  0.00  0.93  0.03  0.00  0.00  0.01  0.00
  YS02001664YS02001661    1.00   0.03  0.00  0.00  0.94  0.03  0.00  0.00  0.10  0.00
  YSB1154YSB6556          1.00   0.03  0.00  0.00  0.97  0.00  0.00  0.00  0.01  0.00
  YSB1174YSB1171          1.00   0.02  0.01  0.00  0.97  0.00  0.00  0.00  0.00  0.00
  YSB1171HS02004479       1.00   0.01  0.00  0.00  0.98  0.00  0.00  0.00  0.10  0.00
  HS02004881HS02006253    1.00   0.02  0.00  0.00  0.72  0.05  0.00  0.22  0.60  0.00
  YS02001793JiankangQianchi    1.00   0.00  0.00  0.00  0.75  0.25  0.00  0.00  0.36  0.00
  YS02001757CaochengTiaoxuchi    1.00   0.00  0.05  0.00  0.92  0.02  0.00  0.00  0.00  0.00
  WSF200WS02003060        1.00   0.00  0.01  0.00  0.99  0.00  0.00  0.00  0.42  0.00
  1                       1.00   0.00  0.00  0.00  0.00  1.00  0.00  0.00  0.54  0.00
  
  
  *************************
  Conduit Surcharge Summary
  *************************
  
  ----------------------------------------------------------------------------
                                                           Hours        Hours 
                         --------- Hours Full --------   Above Full   Capacity
  Conduit                Both Ends  Upstream  Dnstream   Normal Flow   Limited
  ----------------------------------------------------------------------------
  WS02006229WS02006228        3.76      3.84      3.76      5.13         3.76
  WS02006256WS02006235        6.28      6.29      6.97      4.81         0.01
  WS02006253WS02006251        1.73      1.73      1.83      0.01         0.03
  WS02006252WS02006251        1.23      1.23      2.14      1.30         0.01
  WS02006251WS02006249        1.76      1.76      1.91      0.75         0.52
  WS02006249WS02006248        1.82      1.82      1.91      3.10         0.01
  WS02006248WS02006247        1.91      1.91      2.20      0.01         0.01
  WS02006247WS02006245        2.20      2.27      2.20      3.88         1.84
  WS02006245WS02006243        2.28      2.28      2.49      0.29         0.22
  WS02006243WS02006242        2.55      2.55      3.24      0.01         0.01
  WS02006242WS02006240        3.12      3.12      3.48      1.39         0.01
  WS02006240WS02006239        3.19      3.20      3.34      0.82         0.41
  WS02006239WS02006238        3.45      3.47      3.62      0.88         0.50
  WS02006238WS02006235        3.59      3.59      3.72      0.01         0.02
  WS02006235WS02006234        3.32      3.32      3.54      6.11         0.01
  WS02006234WS02006232        3.40      3.40      3.84      0.51         0.53
  WS02006232WS02006231        2.54      2.54      3.84      0.63         0.01
  WS02006231WS02006230        2.00      2.00      2.65      6.31         0.01
[...]
  YS02001779YS02001774        6.13      6.13      6.19      0.01         0.01
  YS02001649YS02001757        6.19      6.19      6.23      0.01         0.01
  YS02001767YS02001765        6.18      6.18      6.18      0.01         0.01
  YS02006561YS02001783        1.65      1.65      1.89      0.01         0.01
  YS02001783YS02001784        1.86      1.89      1.87      2.15         1.86
  YS02001784YS02001785        1.78      1.87      1.78      2.87         1.78
  YS02001788YS02001790        1.68      1.68      2.49      0.01         0.01
  YS02001790YS02001791        2.49      2.49      2.64      1.84         1.82
  YS02001791YS02001793        2.64      2.64      3.13      0.01         0.01
  YS02001910YS02001907        1.92      1.92      2.40      0.01         0.01
  YS02001786YS02001788        1.68      1.78      1.68      2.57         1.68
  YS02001915YS02001910        1.78      1.78      1.92      0.01         0.01
  YS02001918YS02001915        1.63      1.63      1.78      0.01         0.01
  YS02001923YS02001920        1.47      1.47      1.65      0.01         0.01
  YS02001926YS02001923        0.01      0.01      0.01      0.01         0.01
  YS02001929YS02001926        0.01      0.01      0.01      0.01         0.01
  YS02001920YS02001918        1.63      1.63      1.65      0.01         0.01
  YS02001629YS02163301        6.16      6.16      6.17      0.01         0.01
  YS02001619YS02001622        6.09      6.09      6.10      0.01         0.03
  YS02001622YS02001625        6.10      6.10      6.15      0.01         0.01
  YS02001625YS02001629        6.08      6.08      6.15      0.01         0.01
  YS02163301YS02001633        6.17      6.17      6.18      0.01         0.01
  YS02163601YS02164001        6.17      6.17      6.20      0.01         0.01
  YS02164001YS02001641        6.17      6.17      6.18      0.01         0.02
  YS02001641YS02001644        6.18      6.18      6.18      2.38         2.51
  YS02001647YS02001649        6.15      6.15      6.19      0.01         0.01
  YS02006553YS02006556        2.10      2.10      2.48      0.01         0.01
  YS02006556YS02006558        2.22      2.22      2.55      0.01         0.01
  YSB6556YSB1171              0.01      0.01      0.30      0.01         0.01
  YS02001907YS02006553        2.92      2.92      3.12      0.01         0.01
  YS02006558YS02006561        1.74      2.07      1.74      2.78         1.74
  YS02001633YS02163601        6.17      6.17      6.20      0.01         0.01
  YS02001644YS02001647        6.15      6.15      6.18      0.01         0.01
  YS02001745YS02001748        0.01      0.01      6.04      0.01         0.01
  YS02001748YS02001751        6.05      6.05      6.08      0.01         0.01
  YS02001751YS02001754        6.08      6.08      6.14      0.01         0.01
  YS02001754YS02001757        6.15      6.15      6.23      0.01         0.01
  YS02001882YS02001884        1.79      1.79      1.81      0.01         0.01
  YS02001884YS02001887        1.84      1.84      1.86      0.01         0.01
  YS02001890YS02001895        1.77      1.77      1.94      0.01         0.01
  YS02001895YS02001898        1.76      1.76      1.77      0.01         0.01
  YS02001898YS02001901        1.77      1.77      1.84      0.01         0.01
  YS02001901YS02001904        1.82      1.82      1.84      0.01         0.01
  YS02001904YS02001907        1.82      1.82      2.50      0.01         0.01
  YS02001887YS02001890        1.89      1.89      1.91      0.52         0.01
  YS02001652YS02001649        6.16      6.16      6.19      0.01         0.01
  YS02001655YS02001652        6.10      6.10      6.15      0.01         0.01
  YS02001658YS02001655        6.05      6.05      6.10      0.01         0.01
  YS02001661YS02001658        0.13      0.13      6.05      0.01         0.01
  YS02001664YS02001661        0.01      0.01      1.85      0.01         0.01
  HS02004881HS02006253        0.01      0.01      0.91      0.01         0.01
  YS02001793JiankangQianchi        3.01      3.01      4.71      0.01         0.01
  YS02001757CaochengTiaoxuchi        5.74      5.74      6.23      0.01         0.01
  
  
  ***************
  Pumping Summary
  ***************
  
  ---------------------------------------------------------------------------------------------------------
                                                  Min       Avg       Max     Total     Power    % Time Off
                        Percent   Number of      Flow      Flow      Flow    Volume     Usage    Pump Curve
  Pump                 Utilized   Start-Ups       LPS       LPS       LPS  10^6 ltr     Kw-hr    Low   High
  ---------------------------------------------------------------------------------------------------------
  CC-Pump-1               65.96           3      0.00    156.70    200.00     2.760      2.44    0.0    0.0
  CC-Pump-2               27.65           3      0.00    106.68    200.00     0.960      1.20    0.0    0.0
  JK-Pump-1               65.96           5      0.00    238.67    300.00     4.305     54.73    0.0    0.0
  JK-Pump-2               57.44           4      0.00    487.51    683.00     7.903     89.12    0.0   96.9
  XR-Pump-1              100.00           1      0.00     95.00     95.00     2.679     23.35    0.0    0.0
  XR-Pump-2              100.00           1      0.00     93.73     95.00     2.565     20.81    0.0    0.0
  XR-Pump-3              100.00           1      0.00     93.30     95.00     2.508     19.64    0.0    0.0
  XR-Pump-4              100.00           1      0.00     93.30     95.00     2.508     19.64    0.0    0.0
  
  
  ***************************
  Link Pollutant Load Summary
  ***************************
  
  ------------------------------------------------------------------------------------------
                                 COD            SS            TN            TP         NH4-N
  Link                            kg            kg            kg            kg            kg
  ------------------------------------------------------------------------------------------
  WS02003066WSF200          1131.324      2171.227        27.283         2.289        14.079
  WS02006287WS02006284       438.016       854.380        12.586         1.181         6.763
  WS02006284WS02006280       438.506       855.159        12.633         1.187         6.792
  WS02006280WS02006229       438.514       855.207        12.632         1.187         6.791
  WS02006229WS02006228      1120.735      2151.767        26.528         2.193        13.615
  WS02006256WS02006235       275.531       516.392         5.940         0.453         2.978
  WS02006253WS02006251        86.722       173.995         1.850         0.136         0.910
  WS02006252WS02006251       377.472       720.652         7.226         0.496         3.477
  WS02006251WS02006249       454.556       876.380         8.904         0.621         4.307
  WS02006249WS02006248       415.256       797.247         8.157         0.570         3.949
  WS02006248WS02006247       412.042       790.364         8.094         0.565         3.918
  WS02006247WS02006245       412.586       791.513         8.101         0.565         3.921
  WS02006245WS02006243       413.117       792.741         8.105         0.565         3.921
  WS02006243WS02006242       414.609       795.612         8.136         0.568         3.937
  WS02006242WS02006240       415.565       797.223         8.161         0.570         3.950
  WS02006240WS02006239       416.760       799.060         8.201         0.573         3.972
  WS02006239WS02006238       418.088       800.891         8.255         0.579         4.003
  WS02006238WS02006235       418.315       800.827         8.274         0.581         4.015
  WS02006235WS02006234       683.365      1298.710        13.929         1.009         6.842
  WS02006234WS02006232       683.322      1298.621        13.930         1.009         6.842
  WS02006232WS02006231       683.060      1298.106        13.926         1.009         6.840
  WS02006231WS02006230       682.858      1297.765        13.923         1.009         6.839
  WS02006230WS02006229       683.936      1299.762        13.958         1.013         6.858
  WS02006228WS02006109      1120.395      2151.126        26.516         2.191        13.608
  WS02006116WS02004401      1142.292      2191.665        27.516         2.306        14.194
  WS02006115WS02006116      1143.240      2193.399        27.544         2.308        14.209
  WS02006113WS02006111      1127.387      2162.036        27.279         2.288        14.089
  WS02006112WS02006115      1144.228      2195.176        27.581         2.312        14.230
  WS02006111WS02006112      1127.070      2161.440        27.266         2.287        14.081
  WS02006110WS02006113      1127.857      2162.860        27.296         2.290        14.099
  WS02006109WS02006110      1128.585      2164.122        27.327         2.293        14.116
  WS02004411WS02004412      1134.557      2177.150        27.387         2.299        14.136
  WS02004401WS02004402      1141.265      2189.812        27.481         2.302        14.175
  WS02004413WS02003067      1132.008      2172.552        27.297         2.290        14.086
  WS02004412WS02004413      1133.350      2174.950        27.350         2.295        14.116
  WS02004410WS02004411      1135.575      2179.031        27.415         2.301        14.151
  WS02004409WS02004410      1136.610      2180.929        27.446         2.304        14.168
  WS02004407WS02004409      1137.479      2182.541        27.467         2.306        14.179
  WS02004406WS02004407      1137.706      2182.991        27.467         2.305        14.178
  WS02004405WS02004406      1139.053      2185.431        27.515         2.310        14.204
  WS02004404WS02004405      1139.914      2187.096        27.513         2.309        14.201
  WS02004403WS02004404      1139.393      2186.402        27.423         2.297        14.143
  WS02004402WS02004403      1140.305      2188.058        27.454         2.300        14.160
  WS02004139WS02001211      1372.413      2325.210       103.095        12.438        63.129
  WS02004138WS02004139      1378.494      2335.482       103.544        12.492        63.403
  WS02003067WS02003066      1131.512      2171.589        27.288         2.289        14.082
  WS02001213WS02003059      1405.663      2377.232       106.581        12.879        65.321
  WS02001212WS02001213      1414.539      2392.080       107.274        12.963        65.747
  WS02001211WS02001212      1416.773      2395.736       107.467        12.986        65.866
  WS02003072WS02003073      2636.661      4706.469       143.828        16.419        85.644
  WS02003069WS02003072      2641.967      4715.164       144.271        16.473        85.918
  WS02003060WS02003069      2644.568      4719.729       144.410        16.489        86.000
  WS02003059WS02003060      1402.508      2371.829       106.367        12.853        65.191
  HS02004901HS02004770        19.399        38.441         0.369         0.028         0.174
  HS02004876HS02004881        64.834       131.137         1.382         0.100         0.674
  HS02004870HS02004876        49.296        99.606         1.094         0.080         0.537
  HS02004842HS02004848         9.277        18.135         0.191         0.013         0.089
  HS02004837HS02004842        13.924        25.523         0.662         0.072         0.384
  HS02004830HS02004837        81.306       145.727         4.858         0.568         2.931
  HS02004824HS02004830        82.099       147.030         4.931         0.577         2.976
  HS02004817HS02004824       118.559       221.792         5.667         0.624         3.333
  HS02004770HS02004777        73.681       147.817         1.506         0.104         0.700
  HS02004799HS02004480       235.056       460.581         5.678         0.484         2.882
  HS02004792HS02004799       214.122       417.288         5.330         0.464         2.722
  HS02004788HS02004792       116.304       227.316         3.333         0.303         1.755
  HS02004785HS02004788        75.093       150.073         1.653         0.122         0.793
  HS02004777HS02004785        74.424       149.003         1.592         0.115         0.755
  HS02004480HS02004478       294.381       579.834         6.703         0.559         3.370
  HS02004479HS02004480        62.973       125.148         1.335         0.113         0.681
  HS02004862HS02004870        37.528        74.840         0.862         0.066         0.425
  HS02004848HS02004852        15.821        31.379         0.320         0.022         0.149
  HS02004856HS02004862        25.848        52.192         0.514         0.035         0.242
  HS02004852HS02004856        15.834        31.401         0.320         0.022         0.149
  HS02004802HS02004478       144.584       276.082         5.948         0.629         3.433
  HS02004478WS02006287       438.173       854.613        12.602         1.183         6.773
  HS02004817HS02004807       117.199       219.646         5.527         0.607         3.246
  HS02004807HS02004802       144.752       276.340         5.980         0.634         3.453
  YS02001759YS02001757       417.710       790.134         8.154         0.571         3.975
  YS02001762YS02001759       238.850       451.182         4.829         0.341         2.371
  YS02001765YS02001762       240.803       456.132         4.881         0.345         2.399
  YS02001770YS02001767       246.254       469.941         4.859         0.334         2.366
  YS02001774YS02001770       471.930       923.608         9.116         0.613         4.413
  YS02001779YS02001774       471.007       921.859         9.176         0.623         4.456
  YS02001649YS02001757       444.223       835.394         8.736         0.601         4.199
  YS02001767YS02001765       243.506       462.558         4.945         0.350         2.432
  YS02006561YS02001783      1272.258      2402.467        26.210         1.934        12.968
  YS02001783YS02001784      1272.105      2402.198        26.205         1.934        12.966
  YS02001784YS02001785      1279.442      2413.944        26.918         2.023        13.412
  YS02001788YS02001790      1280.170      2415.070        27.007         2.035        13.469
  YS02001790YS02001791      1281.352      2416.947        27.130         2.050        13.546
  YS02001791YS02001793      1281.282      2416.777        27.128         2.050        13.544
  YS02001910YS02001907       564.114      1065.249        12.702         0.936         6.408
  YS02001786YS02001788      1279.638      2414.261        26.946         2.027        13.429
  YS02001915YS02001910       564.172      1065.346        12.659         0.930         6.378
  YS02001918YS02001915       276.578       501.446         6.817         0.586         3.579
  YS02001923YS02001920       252.281       460.271         4.804         0.340         2.334
  YS02001926YS02001923       249.390       455.177         4.686         0.328         2.266
  YS02001929YS02001926       247.584       452.025         4.610         0.320         2.222
  YS02001920YS02001918       273.173       494.201         6.736         0.580         3.539
  YS02001629YS02163301        89.707       159.369         1.894         0.125         0.888
  YS02001619YS02001622       259.363       485.199         5.243         0.348         2.461
  YS02001622YS02001625       258.392       483.672         5.218         0.346         2.450
  YS02001625YS02001629        86.765       153.532         1.849         0.121         0.865
  YS02163301YS02001633        94.543       168.855         1.971         0.131         0.927
  YS02163601YS02164001       528.999       976.443        10.164         0.735         4.886
  YS02164001YS02001641       528.882       976.224        10.151         0.733         4.878
  YS02001641YS02001644       529.901       977.931        10.164         0.734         4.883
  YS02001647YS02001649       580.417      1095.186        11.400         0.793         5.443
  YS02006553YS02006556       791.449      1475.828        16.782         1.269         8.401
  YS02006556YS02006558       791.511      1475.934        16.745         1.264         8.376
  YSB6556YSB1171              36.517        72.724         0.718         0.059         0.359
  YS02001907YS02006553       791.512      1475.965        16.811         1.273         8.421
  YS02006558YS02006561      1272.248      2402.458        26.209         1.934        12.968
  YS02001633YS02163601       529.611       977.414        10.142         0.730         4.868
  YS02001644YS02001647       590.437      1113.594        11.567         0.805         5.522
  YS02001745YS02001748       354.004       679.851         6.988         0.437         3.357
  YS02001748YS02001751       353.312       678.672         6.995         0.440         3.365
  YS02001751YS02001754       352.396       677.163         6.981         0.440         3.359
  YS02001754YS02001757       353.219       678.390         7.147         0.462         3.467
  YS02001882YS02001884         3.507         6.203         0.067         0.005         0.033
  YS02001884YS02001887         7.356        13.291         0.139         0.011         0.068
  YS02001890YS02001895       615.253      1176.336        11.369         0.859         5.547
  YS02001895YS02001898       615.106      1176.154        11.363         0.858         5.544
  YS02001898YS02001901       614.880      1175.717        11.358         0.858         5.541
  YS02001901YS02001904       614.771      1175.561        11.368         0.860         5.548
  YS02001904YS02001907       615.009      1175.883        11.424         0.867         5.584
  YS02001887YS02001890       669.182      1284.202        12.355         0.936         6.031
  YS02001652YS02001649       309.588       588.347         6.140         0.444         2.886
  YS02001655YS02001652       310.027       589.093         6.152         0.445         2.892
  YS02001658YS02001655       309.450       588.217         6.063         0.434         2.835
  YS02001661YS02001658       309.886       588.983         6.073         0.434         2.839
  YS02001664YS02001661       324.520       612.350         6.421         0.458         2.998
  YSB1154YSB6556              36.098        72.062         0.671         0.053         0.330
  YSB1174YSB1171              24.944        50.007         0.488         0.039         0.242
  YSB1171HS02004479           62.894       125.003         1.340         0.114         0.684
  HS02004881HS02006253        73.174       148.490         1.531         0.110         0.745
  YS02001793JiankangQianchi      1282.075      2418.099        27.156         2.053        13.560
  YS02001757CaochengTiaoxuchi       699.204      1315.972        13.738         0.942         6.635
  WSF200WS02003060          1131.011      2170.604        27.281         2.289        14.078
  1                         2643.502      4716.363       144.763        16.540        86.240
  CC-Pump-1                  281.270       537.269         5.376         0.369         2.586
  CC-Pump-2                   95.919       182.800         1.843         0.126         0.887
  JK-Pump-1                  374.618       709.576         7.850         0.591         3.910
  JK-Pump-2                  824.069      1569.100        16.907         1.256         8.374
  XR-Pump-1                  369.963       624.472        28.301         3.425        17.359
  XR-Pump-2                  344.340       583.477        25.845         3.118        15.825
  XR-Pump-3                  333.820       566.646        24.835         2.991        15.193
  XR-Pump-4                  333.820       566.646        24.835         2.991        15.193
  

  Analysis begun on:  Thu Jun  3 10:17:57 2021
  Analysis ended on:  Thu Jun  3 10:18:00 2021
  Total elapsed time: 00:00:03