
  EPA STORM WATER MANAGEMENT MODEL - VERSION 5.1 (Build 5.3.0.dev0)
  --------------------------------------------------------------

  WARNING 09: time series interval greater than recording interval for Rain Gage RG1
  WARNING 09: time series interval greater than recording interval for Rain Gage RG2
  WARNING 09: time series interval greater than recording interval for Rain Gage RG3
  WARNING 09: time series interval greater than recording interval for Rain Gage RG4
  
  *********************************************************
  NOTE: The summary statistics displayed in this report are
  based on results found at every computational time step,  
  not just on results from each reporting time step.
  *********************************************************
  
  ****************
  Analysis Options
  ****************
  Flow Units ............... CMS
  Process Models:
    Rainfall/Runoff ........ YES
    RDII ................... NO
    Snowmelt ............... NO
    Groundwater ............ NO
    Flow Routing ........... YES
    Ponding Allowed ........ YES
    Water Quality .......... NO
  Infiltration Method ...... HORTON
  Flow Routing Method ...... DYNWAVE
  Surcharge Method ......... EXTRAN
  Starting Date ............ 08/28/2015 00:00:00
  Ending Date .............. 08/28/2015 23:40:00
  Antecedent Dry Days ...... 0.0
  Report Time Step ......... 00:01:00
  Wet Time Step ............ 00:01:00
  Dry Time Step ............ 00:01:00
  Routing Time Step ........ 5.00 sec
  Variable Time Step ....... YES
  Maximum Trials ........... 8
  Number of Threads ........ 1
  Head Tolerance ........... 0.001500 m
  
  
  **************************        Volume         Depth
  Runoff Quantity Continuity     hectare-m            mm
  **************************     ---------       -------
  Total Precipitation ......         3.084        17.116
  Evaporation Loss .........         0.000         0.000
  Infiltration Loss ........         0.000         0.000
  Surface Runoff ...........         3.053        16.943
  Final Storage ............         0.036         0.201
  Continuity Error (%) .....        -0.167
  
  
  **************************        Volume        Volume
  Flow Routing Continuity        hectare-m      10^6 ltr
  **************************     ---------     ---------
  Dry Weather Inflow .......         0.758         7.576
  Wet Weather Inflow .......         3.053        30.533
  Groundwater Inflow .......         0.000         0.000
  RDII Inflow ..............         0.000         0.000
  External Inflow ..........         0.000         0.000
  External Outflow .........         2.029        20.287
  Flooding Loss ............         1.564        15.638
  Evaporation Loss .........         0.000         0.000
  Exfiltration Loss ........         0.000         0.000
  Initial Stored Volume ....         0.000         0.000
  Final Stored Volume ......         0.209         2.093
  Continuity Error (%) .....         0.238
  
  
  *************************
  Highest Continuity Errors
  *************************
  Node T5 (3.14%)
  Node T3 (2.55%)
  Node T1 (1.34%)
  
  
  ***************************
  Time-Step Critical Elements
  ***************************
  None
  
  
  ********************************
  Highest Flow Instability Indexes
  ********************************
  All links are stable.
  
  
  *************************
  Routing Time Step Summary
  *************************
  Minimum Time Step           :     0.38 sec
  Average Time Step           :     5.00 sec
  Maximum Time Step           :     5.00 sec
  Percent in Steady State     :     0.00
  Average Iterations per Step :     2.16
  Percent Not Converging      :     0.93
  
  
  ***************************
  Subcatchment Runoff Summary
  ***************************
  
  ------------------------------------------------------------------------------------------------------------------------------
                            Total      Total      Total      Total     Imperv       Perv      Total       Total     Peak  Runoff
                           Precip      Runon       Evap      Infil     Runoff     Runoff     Runoff      Runoff   Runoff   Coeff
  Subcatchment                 mm         mm         mm         mm         mm         mm         mm    10^6 ltr      CMS
  ------------------------------------------------------------------------------------------------------------------------------
  SC01                      18.97       0.00       0.00       0.00      18.88       0.00      18.88        6.23     2.54   0.995
  SC02                      16.75       0.00       0.00       0.00      16.61       0.00      16.61        3.78     1.21   0.992
  SC03                      15.10       0.00       0.00       0.00      15.04       0.00      15.04        2.71     1.24   0.996
  SC04                      16.75       0.00       0.00       0.00      16.44       0.00      16.44        1.13     0.24   0.981
  SC05                      18.97       0.00       0.00       0.00      18.87       0.00      18.87        2.94     1.15   0.995
  SC06                      16.95       0.00       0.00       0.00      16.62       0.00      16.62        5.41     1.07   0.981
  SC07                      16.75       0.00       0.00       0.00      16.44       0.00      16.44        0.78     0.17   0.981
  SC08                      15.10       0.00       0.00       0.00      14.93       0.00      14.93        4.18     1.41   0.989
  SC09                      16.95       0.00       0.00       0.00      16.74       0.00      16.74        1.15     0.29   0.987
  SC010                     18.97       0.00       0.00       0.00      18.83       0.00      18.83        2.21     0.77   0.992
  
  
  ******************
  Node Depth Summary
  ******************
  
  ---------------------------------------------------------------------------------
                                 Average  Maximum  Maximum  Time of Max    Reported
                                   Depth    Depth      HGL   Occurrence   Max Depth
  Node                 Type       Meters   Meters   Meters  days hr:min      Meters
  ---------------------------------------------------------------------------------
  J1                   JUNCTION     0.06     0.35    34.35     0  02:16        0.34
  J3                   JUNCTION     0.14     0.17    18.17     0  04:00        0.17
  CSO7                 JUNCTION     0.12     1.20    35.20     0  02:05        1.20
  J5                   JUNCTION     0.05     0.18    32.18     0  02:22        0.18
  CSO9                 JUNCTION     0.15     2.00    42.00     0  02:05        2.00
  J8                   JUNCTION     0.09     0.35    36.35     0  02:27        0.35
  CSO8                 JUNCTION     0.14     2.00    34.00     0  01:56        2.00
  J10                  JUNCTION     0.08     0.37    29.37     0  02:12        0.37
  J13                  JUNCTION     0.05     0.28    29.28     0  02:11        0.28
  J15                  JUNCTION     0.19     0.53    15.53     0  02:22        0.53
  J16                  JUNCTION     0.06     0.37    30.37     0  02:16        0.36
  CSO10                JUNCTION     0.12     1.00    31.00     0  02:05        1.00
  J12                  JUNCTION     0.35     1.02    27.02     0  04:02        1.02
  J4                   JUNCTION     0.12     1.50    34.50     0  02:08        1.19
  J6                   JUNCTION     0.07     0.12    25.12     0  03:54        0.12
  J2                   JUNCTION     0.07     0.08    25.08     0  03:34        0.08
  J19                  JUNCTION     0.16     0.17     8.17     0  02:16        0.17
  J9                   JUNCTION     0.10     0.16    29.16     0  03:38        0.16
  J14                  JUNCTION     0.16     0.19    20.19     0  06:34        0.19
  J17                  JUNCTION     0.09     0.15    20.15     0  03:46        0.15
  J7                   JUNCTION     0.07     0.23    39.23     0  02:40        0.23
  J11                  JUNCTION     0.08     0.30    31.30     0  02:26        0.30
  J18                  JUNCTION     0.04     0.16    29.16     0  02:46        0.16
  Out_to_WWTP          OUTFALL      0.16     0.17     6.17     0  15:36        0.17
  T5                   STORAGE      2.89     5.00    32.00     0  02:24        5.00
  T4                   STORAGE      1.11     4.96    31.96     0  03:53        4.96
  T6                   STORAGE      1.29     5.00    36.00     0  02:27        5.00
  T3                   STORAGE      3.27     5.00    27.00     0  03:58        5.00
  T2                   STORAGE      1.16     5.00    26.00     0  03:24        5.00
  T1                   STORAGE      4.13     5.00    15.00     0  02:15        5.00
  
  
  *******************
  Node Inflow Summary
  *******************
  
  -------------------------------------------------------------------------------------------------
                                  Maximum  Maximum                  Lateral       Total        Flow
                                  Lateral    Total  Time of Max      Inflow      Inflow     Balance
                                   Inflow   Inflow   Occurrence      Volume      Volume       Error
  Node                 Type           CMS      CMS  days hr:min    10^6 ltr    10^6 ltr     Percent
  -------------------------------------------------------------------------------------------------
  J1                   JUNCTION     1.152    1.152     0  02:16        4.04        4.04      -0.027
  J3                   JUNCTION     0.000    0.308     0  03:58           0        17.6       0.164
  CSO7                 JUNCTION     0.169    0.169     0  02:21        1.35        1.35       0.021
  J5                   JUNCTION     0.244    0.316     0  02:21        1.38        2.62       0.003
  CSO9                 JUNCTION     0.296    0.296     0  02:16        1.54        1.54      -0.026
  J8                   JUNCTION     1.073    1.201     0  02:26        7.24        8.63       0.003
  CSO8                 JUNCTION     1.407    1.407     0  02:11        4.63        4.63      -0.002
  J10                  JUNCTION     1.242    1.727     0  02:11        3.46        7.56      -0.052
  J13                  JUNCTION     1.213    1.213     0  02:11        4.69        4.69      -0.127
  J15                  JUNCTION     0.000    2.820     0  02:16           0        31.3       0.206
  J16                  JUNCTION     2.542    2.542     0  02:16        7.31        7.31      -0.055
  CSO10                JUNCTION     0.769    0.769     0  02:16        2.48        2.48      -0.014
  J12                  JUNCTION     0.000    1.595     0  02:12           0        13.9       0.064
  J4                   JUNCTION     0.000    0.085     0  02:06           0        1.24       0.082
  J6                   JUNCTION     0.000    0.079     0  03:53           0        2.61       0.066
  J2                   JUNCTION     0.000    0.039     0  02:24           0        2.43       0.152
  J19                  JUNCTION     0.000    0.271     0  02:15           0        20.3       0.048
  J9                   JUNCTION     0.000    0.175     0  02:27           0         6.3       0.106
  J14                  JUNCTION     0.000    0.190     0  03:58           0        12.5       0.047
  J17                  JUNCTION     0.000    0.140     0  03:24           0        4.54       0.076
  J7                   JUNCTION     0.000    0.127     0  02:40           0        1.39       0.118
  J11                  JUNCTION     0.000    0.487     0  02:26           0        4.11       0.120
  J18                  JUNCTION     0.000    0.202     0  02:46           0        1.86       0.005
  Out_to_WWTP          OUTFALL      0.000    0.271     0  02:17           0        20.3       0.000
  T5                   STORAGE      0.000    1.065     0  02:16           0        4.04       3.238
  T4                   STORAGE      0.000    0.300     0  02:22           0        2.62       0.079
  T6                   STORAGE      0.000    1.133     0  02:27           0        8.63       0.046
  T3                   STORAGE      0.000    1.468     0  02:13           0        13.8       2.622
  T2                   STORAGE      0.000    1.102     0  02:11           0         4.7       0.192
  T1                   STORAGE      0.000    2.389     0  02:22           0        31.2       1.362
  
  
  **********************
  Node Surcharge Summary
  **********************
  
  Surcharging occurs when water rises above the top of the highest conduit.
  ---------------------------------------------------------------------
                                               Max. Height   Min. Depth
                                   Hours       Above Crown    Below Rim
  Node                 Type      Surcharged         Meters       Meters
  ---------------------------------------------------------------------
  CSO7                 JUNCTION        1.08          0.945        0.000
  CSO9                 JUNCTION        1.31          1.682        0.000
  CSO8                 JUNCTION        0.63          1.547        0.000
  CSO10                JUNCTION        1.17          0.560        0.000
  J4                   JUNCTION        1.02          1.203        0.497
  
  
  *********************
  Node Flooding Summary
  *********************
  
  Flooding refers to all water that overflows a node, whether it ponds or not.
  --------------------------------------------------------------------------
                                                             Total   Maximum
                                 Maximum   Time of Max       Flood    Ponded
                        Hours       Rate    Occurrence      Volume     Depth
  Node                 Flooded       CMS   days hr:min    10^6 ltr    Meters
  --------------------------------------------------------------------------
  CSO7                    0.66     0.096      0  02:21       0.103     0.000
  CSO9                    0.62     0.168      0  02:16       0.149     0.000
  CSO8                    0.44     0.915      0  02:11       0.521     0.000
  CSO10                   1.04     0.563      0  02:16       0.628     0.000
  T5                      2.15     0.650      0  02:26       1.351     0.000
  T6                      1.77     0.957      0  02:27       2.311     0.000
  T3                      1.13     0.256      0  04:05       0.318     0.000
  T2                      0.37     0.216      0  03:27       0.128     0.000
  T1                     12.94     2.118      0  02:22      10.130     0.000
  
  
  **********************
  Storage Volume Summary
  **********************
  
  --------------------------------------------------------------------------------------------------
                         Average     Avg  Evap Exfil       Maximum     Max    Time of Max    Maximum
                          Volume    Pcnt  Pcnt  Pcnt        Volume    Pcnt     Occurrence    Outflow
  Storage Unit           1000 m3    Full  Loss  Loss       1000 m3    Full    days hr:min        CMS
  --------------------------------------------------------------------------------------------------
  T5                       0.289      58     0     0         0.500     100       0  02:24      0.039
  T4                       0.111      22     0     0         0.496      99       0  03:53      0.079
  T6                       0.155      26     0     0         0.600     100       0  02:27      0.175
  T3                       1.699      65     0     0         2.600     100       0  03:58      0.190
  T2                       0.232      23     0     0         1.000     100       0  03:24      0.140
  T1                       0.578      83     0     0         0.700     100       0  02:15      0.271
  
  
  ***********************
  Outfall Loading Summary
  ***********************
  
  -----------------------------------------------------------
                         Flow       Avg       Max       Total
                         Freq      Flow      Flow      Volume
  Outfall Node           Pcnt       CMS       CMS    10^6 ltr
  -----------------------------------------------------------
  Out_to_WWTP           99.43     0.239     0.271      20.287
  -----------------------------------------------------------
  System                99.43     0.239     0.271      20.287
  
  
  ********************
  Link Flow Summary
  ********************
  
  -----------------------------------------------------------------------------
                                 Maximum  Time of Max   Maximum    Max/    Max/
                                  |Flow|   Occurrence   |Veloc|    Full    Full
  Link                 Type          CMS  days hr:min     m/sec    Flow   Depth
  -----------------------------------------------------------------------------
  C1                   CONDUIT     0.039     0  03:17      0.76    0.01    0.13
  C6                   CONDUIT     0.073     0  02:21      1.28    1.16    0.81
  C2                   CONDUIT     0.079     0  03:54      1.48    0.09    0.24
  C9                   CONDUIT     0.127     0  02:40      1.25    0.43    0.58
  C16                  CONDUIT     0.486     0  02:19      1.82    0.05    0.17
  C3                   CONDUIT     0.190     0  04:06      2.06    0.07    0.18
  C19                  CONDUIT     0.140     0  03:46      1.22    0.05    0.33
  C11                  CONDUIT     0.308     0  04:00      1.84    0.02    0.17
  C20                  CONDUIT     2.323     0  02:16      4.94    0.07    0.22
  C22                  CONDUIT     0.202     0  02:46      1.40    0.09    0.43
  C12                  CONDUIT     0.175     0  03:38      1.03    0.01    0.29
  C17                  CONDUIT     1.489     0  02:12      3.64    0.07    0.28
  C10                  CONDUIT     1.133     0  02:27      1.28    0.12    0.62
  C13                  CONDUIT     1.468     0  02:13      2.01    0.09    0.75
  C18                  CONDUIT     1.102     0  02:11      1.61    0.04    0.57
  C23                  CONDUIT     2.389     0  02:22      1.88    0.26    0.68
  C4                   CONDUIT     1.065     0  02:16      1.89    0.26    0.67
  C7                   CONDUIT     0.300     0  02:22      1.19    0.07    0.59
  C14                  CONDUIT     0.271     0  02:17      2.08    0.02    0.09
  C5                   CONDUIT     0.085     0  02:06      1.67    1.45    1.00
  C8                   CONDUIT     0.127     0  02:40      1.86    1.60    0.86
  C15                  CONDUIT     0.487     0  02:26      3.51    1.55    0.83
  C21                  CONDUIT     0.202     0  02:46      1.86    1.16    0.69
  V4                   ORIFICE     0.079     0  03:53                      1.00
  V5                   ORIFICE     0.039     0  02:24                      1.00
  V1                   ORIFICE     0.271     0  02:15                      1.00
  V6                   ORIFICE     0.175     0  02:27                      1.00
  V3                   ORIFICE     0.190     0  03:58                      1.00
  V2                   ORIFICE     0.140     0  03:24                      1.00
  
  
  ***************************
  Flow Classification Summary
  ***************************
  
  -------------------------------------------------------------------------------------
                      Adjusted    ---------- Fraction of Time in Flow Class ---------- 
                       /Actual         Up    Down  Sub   Sup   Up    Down  Norm  Inlet 
  Conduit               Length    Dry  Dry   Dry   Crit  Crit  Crit  Crit  Ltd   Ctrl  
  -------------------------------------------------------------------------------------
  C1                      1.00   0.00  0.00  0.00  0.98  0.02  0.00  0.00  0.98  0.00
  C6                      1.00   0.00  0.00  0.00  0.07  0.93  0.00  0.00  0.00  0.00
  C2                      1.00   0.00  0.00  0.00  0.65  0.35  0.00  0.00  0.98  0.00
  C9                      1.00   0.00  0.00  0.00  1.00  0.00  0.00  0.00  1.00  0.00
  C16                     1.00   0.00  0.00  0.00  0.55  0.45  0.00  0.00  0.44  0.00
  C3                      1.00   0.00  0.00  0.00  0.01  0.99  0.00  0.00  0.01  0.00
  C19                     1.00   0.00  0.00  0.00  0.86  0.14  0.00  0.00  1.00  0.00
  C11                     1.00   0.00  0.00  0.00  0.08  0.92  0.00  0.00  1.00  0.00
  C20                     1.00   0.00  0.00  0.00  0.85  0.15  0.00  0.00  0.99  0.00
  C22                     1.00   0.00  0.00  0.00  0.99  0.01  0.00  0.00  1.00  0.00
  C12                     1.00   0.00  0.00  0.00  0.59  0.40  0.00  0.00  1.00  0.00
  C17                     1.00   0.00  0.00  0.00  0.60  0.40  0.00  0.00  0.97  0.00
  C10                     1.00   0.00  0.00  0.00  0.96  0.04  0.00  0.00  0.97  0.00
  C13                     1.00   0.00  0.00  0.00  0.97  0.03  0.00  0.00  0.59  0.00
  C18                     1.00   0.00  0.00  0.00  0.85  0.15  0.00  0.00  0.98  0.00
  C23                     1.00   0.00  0.00  0.00  0.96  0.04  0.00  0.00  0.97  0.00
  C4                      1.00   0.00  0.00  0.00  0.97  0.03  0.00  0.00  0.98  0.00
  C7                      1.00   0.00  0.00  0.00  0.96  0.04  0.00  0.00  0.97  0.00
  C14                     1.00   0.00  0.00  0.00  0.00  1.00  0.00  0.00  0.25  0.00
  C5                      1.00   0.00  0.00  0.00  0.91  0.09  0.00  0.00  0.92  0.00
  C8                      1.00   0.00  0.00  0.00  0.09  0.91  0.00  0.00  0.00  0.00
  C15                     1.00   0.00  0.00  0.00  0.00  1.00  0.00  0.00  0.01  0.00
  C21                     1.00   0.00  0.00  0.00  0.00  1.00  0.00  0.00  0.00  0.00
  
  
  *************************
  Conduit Surcharge Summary
  *************************
  
  ----------------------------------------------------------------------------
                                                           Hours        Hours 
                         --------- Hours Full --------   Above Full   Capacity
  Conduit                Both Ends  Upstream  Dnstream   Normal Flow   Limited
  ----------------------------------------------------------------------------
  C6                          0.01      1.02      0.01      0.79         0.01
  C10                         0.01      0.01      5.85      0.01         0.01
  C13                         0.01      0.01     17.48      0.01         0.01
  C18                         0.01      0.01      5.19      0.01         0.01
  C23                         0.01      0.01     21.91      0.01         0.01
  C4                          0.01      0.01     21.61      0.01         0.01
  C7                          0.01      0.01      6.85      0.01         0.01
  C5                          1.05      1.08      1.24      1.14         1.01
  C8                          0.01      1.31      0.01      1.33         0.01
  C15                         0.01      0.63      0.01      0.65         0.01
  C21                         0.01      1.17      0.01      1.13         0.01
  

  Analysis begun on:  Mon Sep 20 21:25:29 2021
  Analysis ended on:  Mon Sep 20 21:25:30 2021
  Total elapsed time: 00:00:01