
  EPA STORM WATER MANAGEMENT MODEL - VERSION 5.1 (Build 5.3.0.dev0)
  --------------------------------------------------------------

  WARNING 09: time series interval greater than recording interval for Rain Gage RG1
  WARNING 09: time series interval greater than recording interval for Rain Gage RG2
  WARNING 09: time series interval greater than recording interval for Rain Gage RG3
  WARNING 09: time series interval greater than recording interval for Rain Gage RG4
  
  *********************************************************
  NOTE: The summary statistics displayed in this report are
  based on results found at every computational time step,  
  not just on results from each reporting time step.
  *********************************************************
  
  ****************
  Analysis Options
  ****************
  Flow Units ............... CMS
  Process Models:
    Rainfall/Runoff ........ YES
    RDII ................... NO
    Snowmelt ............... NO
    Groundwater ............ NO
    Flow Routing ........... YES
    Ponding Allowed ........ YES
    Water Quality .......... NO
  Infiltration Method ...... HORTON
  Flow Routing Method ...... DYNWAVE
  Surcharge Method ......... EXTRAN
  Starting Date ............ 08/28/2015 00:00:00
  Ending Date .............. 08/28/2015 23:40:00
  Antecedent Dry Days ...... 0.0
  Report Time Step ......... 00:01:00
  Wet Time Step ............ 00:01:00
  Dry Time Step ............ 00:01:00
  Routing Time Step ........ 5.00 sec
  Variable Time Step ....... YES
  Maximum Trials ........... 8
  Number of Threads ........ 1
  Head Tolerance ........... 0.001500 m
  
  
  **************************        Volume         Depth
  Runoff Quantity Continuity     hectare-m            mm
  **************************     ---------       -------
  Total Precipitation ......         3.156        17.513
  Evaporation Loss .........         0.000         0.000
  Infiltration Loss ........         0.000         0.000
  Surface Runoff ...........         3.138        17.414
  Final Storage ............         0.024         0.131
  Continuity Error (%) .....        -0.187
  
  
  **************************        Volume        Volume
  Flow Routing Continuity        hectare-m      10^6 ltr
  **************************     ---------     ---------
  Dry Weather Inflow .......         0.758         7.576
  Wet Weather Inflow .......         3.138        31.380
  Groundwater Inflow .......         0.000         0.000
  RDII Inflow ..............         0.000         0.000
  External Inflow ..........         0.000         0.000
  External Outflow .........         1.941        19.410
  Flooding Loss ............         1.786        17.859
  Evaporation Loss .........         0.000         0.000
  Exfiltration Loss ........         0.000         0.000
  Initial Stored Volume ....         0.000         0.000
  Final Stored Volume ......         0.169         1.692
  Continuity Error (%) .....        -0.012
  
  
  *************************
  Highest Continuity Errors
  *************************
  Node T5 (4.04%)
  Node T3 (1.63%)
  Node T1 (1.05%)
  
  
  ***************************
  Time-Step Critical Elements
  ***************************
  None
  
  
  ********************************
  Highest Flow Instability Indexes
  ********************************
  All links are stable.
  
  
  *************************
  Routing Time Step Summary
  *************************
  Minimum Time Step           :     1.53 sec
  Average Time Step           :     5.00 sec
  Maximum Time Step           :     5.00 sec
  Percent in Steady State     :     0.00
  Average Iterations per Step :     2.21
  Percent Not Converging      :     0.42
  
  
  ***************************
  Subcatchment Runoff Summary
  ***************************
  
  ------------------------------------------------------------------------------------------------------------------------------
                            Total      Total      Total      Total     Imperv       Perv      Total       Total     Peak  Runoff
                           Precip      Runon       Evap      Infil     Runoff     Runoff     Runoff      Runoff   Runoff   Coeff
  Subcatchment                 mm         mm         mm         mm         mm         mm         mm    10^6 ltr      CMS
  ------------------------------------------------------------------------------------------------------------------------------
  SC01                      14.91       0.00       0.00       0.00      14.77       0.00      14.77        4.87     0.96   0.991
  SC02                      20.61       0.00       0.00       0.00      20.54       0.00      20.54        4.67     1.32   0.996
  SC03                      21.28       0.00       0.00       0.00      21.27       0.00      21.27        3.83     1.45   1.000
  SC04                      20.61       0.00       0.00       0.00      20.47       0.00      20.47        1.41     0.30   0.993
  SC05                      14.91       0.00       0.00       0.00      14.76       0.00      14.76        2.30     0.44   0.990
  SC06                      14.40       0.00       0.00       0.00      14.32       0.00      14.32        4.66     0.82   0.995
  SC07                      20.61       0.00       0.00       0.00      20.47       0.00      20.47        0.97     0.21   0.993
  SC08                      21.28       0.00       0.00       0.00      21.18       0.00      21.18        5.93     1.62   0.996
  SC09                      14.40       0.00       0.00       0.00      14.35       0.00      14.35        0.99     0.23   0.996
  SC010                     14.91       0.00       0.00       0.00      14.74       0.00      14.74        1.73     0.30   0.989
  
  
  ******************
  Node Depth Summary
  ******************
  
  ---------------------------------------------------------------------------------
                                 Average  Maximum  Maximum  Time of Max    Reported
                                   Depth    Depth      HGL   Occurrence   Max Depth
  Node                 Type       Meters   Meters   Meters  days hr:min      Meters
  ---------------------------------------------------------------------------------
  J1                   JUNCTION     0.06     0.21    34.21     0  03:11        0.21
  J3                   JUNCTION     0.14     0.17    18.17     0  05:18        0.17
  CSO7                 JUNCTION     0.14     1.20    35.20     0  02:55        1.20
  J5                   JUNCTION     0.05     0.20    32.20     0  03:16        0.20
  CSO9                 JUNCTION     0.13     2.00    42.00     0  03:06        2.00
  J8                   JUNCTION     0.09     0.31    36.31     0  04:42        0.31
  CSO8                 JUNCTION     0.20     2.00    34.00     0  02:35        2.00
  J10                  JUNCTION     0.08     0.39    29.39     0  03:07        0.38
  J13                  JUNCTION     0.05     0.29    29.29     0  03:16        0.29
  J15                  JUNCTION     0.19     0.38    15.38     0  03:17        0.38
  J16                  JUNCTION     0.05     0.23    30.23     0  03:11        0.23
  CSO10                JUNCTION     0.11     1.00    31.00     0  03:01        1.00
  J12                  JUNCTION     0.45     1.06    27.06     0  03:59        1.06
  J4                   JUNCTION     0.12     1.51    34.51     0  04:38        0.75
  J6                   JUNCTION     0.07     0.12    25.12     0  05:06        0.12
  J2                   JUNCTION     0.07     0.08    25.08     0  07:10        0.08
  J19                  JUNCTION     0.15     0.17     8.17     0  03:19        0.17
  J9                   JUNCTION     0.10     0.16    29.16     0  05:36        0.16
  J14                  JUNCTION     0.16     0.19    20.19     0  09:32        0.19
  J17                  JUNCTION     0.08     0.15    20.15     0  05:07        0.15
  J7                   JUNCTION     0.07     0.23    39.23     0  04:48        0.23
  J11                  JUNCTION     0.08     0.30    31.30     0  03:49        0.30
  J18                  JUNCTION     0.05     0.16    29.16     0  03:19        0.16
  Out_to_WWTP          OUTFALL      0.15     0.17     6.17     0  15:59        0.17
  T5                   STORAGE      3.18     5.00    32.00     0  04:41        5.00
  T4                   STORAGE      1.36     5.00    32.00     0  04:00        5.00
  T6                   STORAGE      1.56     5.00    36.00     0  04:33        5.00
  T3                   STORAGE      3.35     5.00    27.00     0  03:53        5.00
  T2                   STORAGE      1.37     5.00    26.00     0  03:33        5.00
  T1                   STORAGE      3.92     5.00    15.00     0  03:18        5.00
  
  
  *******************
  Node Inflow Summary
  *******************
  
  -------------------------------------------------------------------------------------------------
                                  Maximum  Maximum                  Lateral       Total        Flow
                                  Lateral    Total  Time of Max      Inflow      Inflow     Balance
                                   Inflow   Inflow   Occurrence      Volume      Volume       Error
  Node                 Type           CMS      CMS  days hr:min    10^6 ltr    10^6 ltr     Percent
  -------------------------------------------------------------------------------------------------
  J1                   JUNCTION     0.444    0.444     0  03:11         3.4         3.4      -0.052
  J3                   JUNCTION     0.000    0.309     0  05:18           0        17.6       0.151
  CSO7                 JUNCTION     0.210    0.210     0  03:16        1.54        1.54       0.007
  J5                   JUNCTION     0.303    0.376     0  03:16        1.66        2.96      -0.033
  CSO9                 JUNCTION     0.231    0.231     0  04:36        1.37        1.37      -0.015
  J8                   JUNCTION     0.828    0.949     0  04:41        6.49        7.82      -0.039
  CSO8                 JUNCTION     1.619    1.619     0  03:11        6.38        6.38      -0.024
  J10                  JUNCTION     1.457    1.943     0  03:06        4.58        9.64      -0.085
  J13                  JUNCTION     1.325    1.325     0  03:11        5.58        5.58      -0.149
  J15                  JUNCTION     0.000    1.364     0  03:11           0        30.1       0.189
  J16                  JUNCTION     0.966    0.966     0  03:11        5.95        5.95      -0.079
  CSO10                JUNCTION     0.304    0.304     0  03:11           2           2      -0.041
  J12                  JUNCTION     0.000    1.681     0  03:07           0        16.2      -0.035
  J4                   JUNCTION     0.000    0.085     0  04:36           0         1.3       0.025
  J6                   JUNCTION     0.000    0.080     0  04:00           0        2.72       0.014
  J2                   JUNCTION     0.000    0.039     0  04:41           0        2.52       0.138
  J19                  JUNCTION     0.000    0.271     0  03:18           0        19.4       0.044
  J9                   JUNCTION     0.000    0.175     0  04:33           0        6.55       0.037
  J14                  JUNCTION     0.000    0.190     0  03:53           0        12.3       0.045
  J17                  JUNCTION     0.000    0.140     0  03:33           0        4.65       0.036
  J7                   JUNCTION     0.000    0.127     0  04:48           0        1.33       0.076
  J11                  JUNCTION     0.000    0.486     0  03:49           0        5.06       0.061
  J18                  JUNCTION     0.000    0.202     0  03:19           0        1.96      -0.015
  Out_to_WWTP          OUTFALL      0.000    0.271     0  03:19           0        19.4       0.000
  T5                   STORAGE      0.000    0.407     0  03:11           0         3.4       4.210
  T4                   STORAGE      0.000    0.355     0  03:17           0        2.96      -0.035
  T6                   STORAGE      0.000    0.901     0  04:42           0        7.82       0.021
  T3                   STORAGE      0.000    1.548     0  03:13           0        16.2       1.652
  T2                   STORAGE      0.000    1.225     0  03:16           0        5.59       0.072
  T1                   STORAGE      0.000    1.244     0  03:17           0        30.1       1.064
  
  
  **********************
  Node Surcharge Summary
  **********************
  
  Surcharging occurs when water rises above the top of the highest conduit.
  ---------------------------------------------------------------------
                                               Max. Height   Min. Depth
                                   Hours       Above Crown    Below Rim
  Node                 Type      Surcharged         Meters       Meters
  ---------------------------------------------------------------------
  CSO7                 JUNCTION        1.49          0.945        0.000
  CSO9                 JUNCTION        1.08          1.682        0.000
  CSO8                 JUNCTION        1.70          1.547        0.000
  CSO10                JUNCTION        0.57          0.560        0.000
  J4                   JUNCTION        1.48          1.209        0.491
  
  
  *********************
  Node Flooding Summary
  *********************
  
  Flooding refers to all water that overflows a node, whether it ponds or not.
  --------------------------------------------------------------------------
                                                             Total   Maximum
                                 Maximum   Time of Max       Flood    Ponded
                        Hours       Rate    Occurrence      Volume     Depth
  Node                 Flooded       CMS   days hr:min    10^6 ltr    Meters
  --------------------------------------------------------------------------
  CSO7                    1.29     0.136      0  03:16       0.240     0.000
  CSO9                    0.34     0.106      0  04:36       0.045     0.000
  CSO8                    1.20     1.127      0  03:11       1.318     0.000
  CSO10                   0.34     0.101      0  03:11       0.039     0.000
  T5                      1.89     0.284      0  06:41       0.609     0.000
  T4                      0.97     0.177      0  04:42       0.236     0.000
  T6                      1.45     0.726      0  04:42       1.269     0.000
  T3                      4.02     1.020      0  04:35       3.100     0.000
  T2                      0.98     0.751      0  04:41       0.930     0.000
  T1                     12.26     0.973      0  03:18      10.072     0.000
  
  
  **********************
  Storage Volume Summary
  **********************
  
  --------------------------------------------------------------------------------------------------
                         Average     Avg  Evap Exfil       Maximum     Max    Time of Max    Maximum
                          Volume    Pcnt  Pcnt  Pcnt        Volume    Pcnt     Occurrence    Outflow
  Storage Unit           1000 m3    Full  Loss  Loss       1000 m3    Full    days hr:min        CMS
  --------------------------------------------------------------------------------------------------
  T5                       0.318      64     0     0         0.500     100       0  04:41      0.039
  T4                       0.136      27     0     0         0.500     100       0  04:00      0.080
  T6                       0.187      31     0     0         0.600     100       0  04:33      0.175
  T3                       1.741      67     0     0         2.600     100       0  03:53      0.222
  T2                       0.274      27     0     0         1.000     100       0  03:33      0.140
  T1                       0.548      78     0     0         0.700     100       0  03:18      0.271
  
  
  ***********************
  Outfall Loading Summary
  ***********************
  
  -----------------------------------------------------------
                         Flow       Avg       Max       Total
                         Freq      Flow      Flow      Volume
  Outfall Node           Pcnt       CMS       CMS    10^6 ltr
  -----------------------------------------------------------
  Out_to_WWTP           99.54     0.229     0.271      19.410
  -----------------------------------------------------------
  System                99.54     0.229     0.271      19.410
  
  
  ********************
  Link Flow Summary
  ********************
  
  -----------------------------------------------------------------------------
                                 Maximum  Time of Max   Maximum    Max/    Max/
                                  |Flow|   Occurrence   |Veloc|    Full    Full
  Link                 Type          CMS  days hr:min     m/sec    Flow   Depth
  -----------------------------------------------------------------------------
  C1                   CONDUIT     0.039     0  07:11      0.90    0.01    0.13
  C6                   CONDUIT     0.074     0  03:16      1.29    1.17    0.83
  C2                   CONDUIT     0.080     0  05:05      1.49    0.09    0.25
  C9                   CONDUIT     0.127     0  04:49      1.30    0.43    0.54
  C16                  CONDUIT     0.492     0  03:26      1.81    0.05    0.17
  C3                   CONDUIT     0.190     0  03:55      2.06    0.07    0.18
  C19                  CONDUIT     0.140     0  05:07      1.26    0.05    0.26
  C11                  CONDUIT     0.309     0  05:18      1.85    0.02    0.14
  C20                  CONDUIT     0.879     0  03:11      3.29    0.03    0.15
  C22                  CONDUIT     0.202     0  03:19      1.47    0.09    0.34
  C12                  CONDUIT     0.175     0  05:36      0.86    0.01    0.30
  C17                  CONDUIT     1.612     0  03:07      3.88    0.08    0.33
  C10                  CONDUIT     0.901     0  04:42      1.38    0.09    0.60
  C13                  CONDUIT     1.548     0  03:13      1.73    0.09    0.76
  C18                  CONDUIT     1.225     0  03:16      2.41    0.05    0.57
  C23                  CONDUIT     1.244     0  03:17      1.45    0.14    0.63
  C4                   CONDUIT     0.407     0  03:11      1.48    0.10    0.61
  C7                   CONDUIT     0.355     0  03:17      1.58    0.09    0.60
  C14                  CONDUIT     0.271     0  03:19      2.08    0.02    0.09
  C5                   CONDUIT     0.085     0  04:36      1.67    1.45    1.00
  C8                   CONDUIT     0.127     0  04:48      1.93    1.60    0.86
  C15                  CONDUIT     0.486     0  03:49      3.72    1.55    0.83
  C21                  CONDUIT     0.202     0  03:19      1.87    1.16    0.69
  V4                   ORIFICE     0.080     0  04:00                      1.00
  V5                   ORIFICE     0.039     0  04:41                      1.00
  V1                   ORIFICE     0.271     0  03:18                      1.00
  V6                   ORIFICE     0.175     0  04:33                      1.00
  V3                   ORIFICE     0.190     0  03:53                      1.00
  V2                   ORIFICE     0.140     0  03:33                      1.00
  
  
  ***************************
  Flow Classification Summary
  ***************************
  
  -------------------------------------------------------------------------------------
                      Adjusted    ---------- Fraction of Time in Flow Class ---------- 
                       /Actual         Up    Down  Sub   Sup   Up    Down  Norm  Inlet 
  Conduit               Length    Dry  Dry   Dry   Crit  Crit  Crit  Crit  Ltd   Ctrl  
  -------------------------------------------------------------------------------------
  C1                      1.00   0.00  0.00  0.00  0.96  0.04  0.00  0.00  0.97  0.00
  C6                      1.00   0.00  0.00  0.00  0.09  0.91  0.00  0.00  0.00  0.00
  C2                      1.00   0.00  0.00  0.00  0.59  0.41  0.00  0.00  0.99  0.00
  C9                      1.00   0.00  0.00  0.00  1.00  0.00  0.00  0.00  1.00  0.00
  C16                     1.00   0.00  0.00  0.00  0.70  0.30  0.00  0.00  0.59  0.00
  C3                      1.00   0.00  0.00  0.00  0.02  0.98  0.00  0.00  0.02  0.00
  C19                     1.00   0.00  0.00  0.00  0.86  0.14  0.00  0.00  1.00  0.00
  C11                     1.00   0.00  0.00  0.00  0.10  0.89  0.00  0.00  1.00  0.00
  C20                     1.00   0.00  0.00  0.00  0.85  0.15  0.00  0.00  0.99  0.00
  C22                     1.00   0.00  0.00  0.00  0.96  0.04  0.00  0.00  1.00  0.00
  C12                     1.00   0.00  0.00  0.00  0.61  0.38  0.00  0.00  1.00  0.00
  C17                     1.00   0.00  0.00  0.00  0.77  0.23  0.00  0.00  0.96  0.00
  C10                     1.00   0.00  0.00  0.00  0.88  0.12  0.00  0.00  0.98  0.00
  C13                     1.00   0.00  0.00  0.00  0.93  0.07  0.00  0.00  0.46  0.00
  C18                     1.00   0.00  0.00  0.00  0.64  0.36  0.00  0.00  0.98  0.00
  C23                     1.00   0.00  0.00  0.00  0.97  0.03  0.00  0.00  0.98  0.00
  C4                      1.00   0.00  0.00  0.00  0.98  0.02  0.00  0.00  0.99  0.00
  C7                      1.00   0.00  0.00  0.00  0.83  0.17  0.00  0.00  0.97  0.00
  C14                     1.00   0.00  0.00  0.00  0.00  1.00  0.00  0.00  0.27  0.00
  C5                      1.00   0.00  0.00  0.00  0.94  0.06  0.00  0.00  0.91  0.00
  C8                      1.00   0.00  0.00  0.00  0.18  0.82  0.00  0.00  0.01  0.00
  C15                     1.00   0.00  0.00  0.00  0.01  0.99  0.00  0.00  0.01  0.00
  C21                     1.00   0.00  0.00  0.00  0.00  1.00  0.00  0.00  0.00  0.00
  
  
  *************************
  Conduit Surcharge Summary
  *************************
  
  ----------------------------------------------------------------------------
                                                           Hours        Hours 
                         --------- Hours Full --------   Above Full   Capacity
  Conduit                Both Ends  Upstream  Dnstream   Normal Flow   Limited
  ----------------------------------------------------------------------------
  C6                          0.01      1.48      0.01      1.30         0.01
  C10                         0.01      0.01      8.00      0.01         0.01
  C13                         0.01      0.01     17.35      0.01         0.01
  C18                         0.01      0.01      6.70      0.01         0.01
  C23                         0.01      0.01     20.74      0.01         0.01
  C4                          0.01      0.01     20.70      0.01         0.01
  C7                          0.01      0.01      8.79      0.01         0.01
  C5                          1.46      1.49      1.65      1.55         1.41
  C8                          0.01      1.08      0.01      1.10         0.01
  C15                         0.01      1.70      0.01      1.75         0.01
  C21                         0.01      0.57      0.01      0.52         0.01
  

  Analysis begun on:  Mon Sep 20 21:29:48 2021
  Analysis ended on:  Mon Sep 20 21:29:48 2021
  Total elapsed time: < 1 sec