
  EPA STORM WATER MANAGEMENT MODEL - VERSION 5.1 (Build 5.3.0.dev0)
  --------------------------------------------------------------

  WARNING 09: time series interval greater than recording interval for Rain Gage RG1
  WARNING 09: time series interval greater than recording interval for Rain Gage RG2
  WARNING 09: time series interval greater than recording interval for Rain Gage RG3
  WARNING 09: time series interval greater than recording interval for Rain Gage RG4
  
  *********************************************************
  NOTE: The summary statistics displayed in this report are
  based on results found at every computational time step,  
  not just on results from each reporting time step.
  *********************************************************
  
  ****************
  Analysis Options
  ****************
  Flow Units ............... CMS
  Process Models:
    Rainfall/Runoff ........ YES
    RDII ................... NO
    Snowmelt ............... NO
    Groundwater ............ NO
    Flow Routing ........... YES
    Ponding Allowed ........ YES
    Water Quality .......... NO
  Infiltration Method ...... HORTON
  Flow Routing Method ...... DYNWAVE
  Surcharge Method ......... EXTRAN
  Starting Date ............ 08/28/2015 00:00:00
  Ending Date .............. 08/28/2015 23:40:00
  Antecedent Dry Days ...... 0.0
  Report Time Step ......... 00:01:00
  Wet Time Step ............ 00:01:00
  Dry Time Step ............ 00:01:00
  Routing Time Step ........ 5.00 sec
  Variable Time Step ....... YES
  Maximum Trials ........... 8
  Number of Threads ........ 1
  Head Tolerance ........... 0.001500 m
  
  
  **************************        Volume         Depth
  Runoff Quantity Continuity     hectare-m            mm
  **************************     ---------       -------
  Total Precipitation ......         1.539         8.540
  Evaporation Loss .........         0.000         0.000
  Infiltration Loss ........         0.000         0.000
  Surface Runoff ...........         1.301         7.222
  Final Storage ............         0.242         1.343
  Continuity Error (%) .....        -0.295
  
  
  **************************        Volume        Volume
  Flow Routing Continuity        hectare-m      10^6 ltr
  **************************     ---------     ---------
  Dry Weather Inflow .......         0.758         7.576
  Wet Weather Inflow .......         1.297        12.971
  Groundwater Inflow .......         0.000         0.000
  RDII Inflow ..............         0.000         0.000
  External Inflow ..........         0.000         0.000
  External Outflow .........         1.168        11.681
  Flooding Loss ............         0.142         1.423
  Evaporation Loss .........         0.000         0.000
  Exfiltration Loss ........         0.000         0.000
  Initial Stored Volume ....         0.000         0.000
  Final Stored Volume ......         0.595         5.948
  Continuity Error (%) .....         7.270
  
  
  *************************
  Highest Continuity Errors
  *************************
  Node T5 (19.65%)
  Node T3 (12.55%)
  Node T2 (10.07%)
  Node T6 (8.41%)
  Node T4 (5.73%)
  
  
  ***************************
  Time-Step Critical Elements
  ***************************
  None
  
  
  ********************************
  Highest Flow Instability Indexes
  ********************************
  All links are stable.
  
  
  *************************
  Routing Time Step Summary
  *************************
  Minimum Time Step           :     4.50 sec
  Average Time Step           :     5.00 sec
  Maximum Time Step           :     5.00 sec
  Percent in Steady State     :     0.00
  Average Iterations per Step :     2.00
  Percent Not Converging      :     0.00
  
  
  ***************************
  Subcatchment Runoff Summary
  ***************************
  
  ------------------------------------------------------------------------------------------------------------------------------
                            Total      Total      Total      Total     Imperv       Perv      Total       Total     Peak  Runoff
                           Precip      Runon       Evap      Infil     Runoff     Runoff     Runoff      Runoff   Runoff   Coeff
  Subcatchment                 mm         mm         mm         mm         mm         mm         mm    10^6 ltr      CMS
  ------------------------------------------------------------------------------------------------------------------------------
  SC01                       9.15       0.00       0.00       0.00       8.09       0.00       8.09        2.67     0.37   0.885
  SC02                       7.44       0.00       0.00       0.00       6.40       0.00       6.40        1.46     0.26   0.860
  SC03                       8.64       0.00       0.00       0.00       7.92       0.00       7.92        1.43     0.24   0.916
  SC04                       7.44       0.00       0.00       0.00       5.67       0.00       5.67        0.39     0.06   0.762
  SC05                       9.15       0.00       0.00       0.00       8.02       0.00       8.02        1.25     0.17   0.877
  SC06                       8.45       0.00       0.00       0.00       6.45       0.00       6.45        2.10     0.25   0.763
  SC07                       7.44       0.00       0.00       0.00       5.68       0.00       5.68        0.27     0.04   0.763
  SC08                       8.64       0.00       0.00       0.00       7.34       0.00       7.34        2.05     0.30   0.849
  SC09                       8.45       0.00       0.00       0.00       6.94       0.00       6.94        0.48     0.06   0.822
  SC010                      9.15       0.00       0.00       0.00       7.82       0.00       7.82        0.92     0.12   0.854
  
  
  ******************
  Node Depth Summary
  ******************
  
  ---------------------------------------------------------------------------------
                                 Average  Maximum  Maximum  Time of Max    Reported
                                   Depth    Depth      HGL   Occurrence   Max Depth
  Node                 Type       Meters   Meters   Meters  days hr:min      Meters
  ---------------------------------------------------------------------------------
  J1                   JUNCTION     0.05     0.13    34.13     0  23:12        0.13
  J3                   JUNCTION     0.09     0.15    18.15     0  23:40        0.15
  CSO7                 JUNCTION     0.07     0.16    34.16     0  23:31        0.16
  J5                   JUNCTION     0.04     0.10    32.10     0  23:33        0.10
  CSO9                 JUNCTION     0.07     0.22    40.22     0  23:36        0.22
  J8                   JUNCTION     0.07     0.18    36.18     0  23:38        0.18
  CSO8                 JUNCTION     0.07     0.37    32.37     0  23:16        0.36
  J10                  JUNCTION     0.06     0.21    29.21     0  23:18        0.21
  J13                  JUNCTION     0.04     0.13    29.13     0  23:17        0.13
  J15                  JUNCTION     0.13     0.28    15.28     0  23:39        0.28
  J16                  JUNCTION     0.05     0.15    30.15     0  23:11        0.15
  CSO10                JUNCTION     0.08     0.28    30.28     0  23:11        0.28
  J12                  JUNCTION     0.10     0.24    26.24     0  23:23        0.24
  J4                   JUNCTION     0.08     0.18    33.18     0  23:37        0.18
  J6                   JUNCTION     0.05     0.08    25.08     0  23:40        0.08
  J2                   JUNCTION     0.05     0.08    25.08     0  23:40        0.08
  J19                  JUNCTION     0.11     0.17     8.17     0  20:36        0.17
  J9                   JUNCTION     0.08     0.13    29.13     0  23:40        0.13
  J14                  JUNCTION     0.10     0.17    20.17     0  23:40        0.17
  J17                  JUNCTION     0.06     0.11    20.11     0  23:40        0.11
  J7                   JUNCTION     0.06     0.15    39.15     0  23:39        0.15
  J11                  JUNCTION     0.06     0.22    31.22     0  23:18        0.22
  J18                  JUNCTION     0.04     0.12    29.12     0  23:13        0.12
  Out_to_WWTP          OUTFALL      0.11     0.17     6.17     0  20:34        0.17
  T5                   STORAGE      1.25     4.59    31.59     0  23:40        4.59
  T4                   STORAGE      0.24     1.01    28.01     0  23:40        1.01
  T6                   STORAGE      0.56     2.21    33.21     0  23:40        2.21
  T3                   STORAGE      0.90     3.77    25.77     0  23:40        3.77
  T2                   STORAGE      0.21     1.20    22.20     0  23:40        1.20
  T1                   STORAGE      1.96     5.00    15.00     0  20:35        5.00
  
  
  *******************
  Node Inflow Summary
  *******************
  
  -------------------------------------------------------------------------------------------------
                                  Maximum  Maximum                  Lateral       Total        Flow
                                  Lateral    Total  Time of Max      Inflow      Inflow     Balance
                                   Inflow   Inflow   Occurrence      Volume      Volume       Error
  Node                 Type           CMS      CMS  days hr:min    10^6 ltr    10^6 ltr     Percent
  -------------------------------------------------------------------------------------------------
  J1                   JUNCTION     0.170    0.170     0  23:11        2.34        2.34       0.424
  J3                   JUNCTION     0.000    0.236     0  23:40           0        8.13       0.536
  CSO7                 JUNCTION     0.043    0.043     0  23:31       0.834       0.834       0.170
  J5                   JUNCTION     0.061    0.095     0  23:31       0.638        1.46       0.644
  CSO9                 JUNCTION     0.062    0.062     0  23:36       0.859       0.859       0.289
  J8                   JUNCTION     0.253    0.304     0  23:36        3.92        4.77       0.780
  CSO8                 JUNCTION     0.299    0.299     0  23:16        2.49        2.49       0.193
  J10                  JUNCTION     0.238    0.470     0  23:16        2.17        4.62       1.089
  J13                  JUNCTION     0.263    0.263     0  23:16        2.36        2.36       0.398
  J15                  JUNCTION     0.000    0.722     0  23:37           0        14.8       1.264
  J16                  JUNCTION     0.369    0.369     0  23:11        3.74        3.74       0.505
  CSO10                JUNCTION     0.117    0.117     0  23:11        1.19        1.19       0.356
  J12                  JUNCTION     0.000    0.542     0  23:18           0        8.61       1.371
  J4                   JUNCTION     0.000    0.041     0  23:32           0       0.832       1.262
  J6                   JUNCTION     0.000    0.036     0  23:40           0        1.27       0.385
  J2                   JUNCTION     0.000    0.038     0  23:40           0        1.41       0.402
  J19                  JUNCTION     0.000    0.271     0  20:35           0        11.7       0.108
  J9                   JUNCTION     0.000    0.116     0  23:40           0        4.07       0.562
  J14                  JUNCTION     0.000    0.165     0  23:40           0        5.47       0.167
  J17                  JUNCTION     0.000    0.068     0  23:40           0        1.87       0.533
  J7                   JUNCTION     0.000    0.059     0  23:37           0       0.856       1.679
  J11                  JUNCTION     0.000    0.295     0  23:16           0        2.49       1.860
  J18                  JUNCTION     0.000    0.112     0  23:11           0        1.18       1.270
  Out_to_WWTP          OUTFALL      0.000    0.271     0  20:36           0        11.7       0.000
  T5                   STORAGE      0.000    0.159     0  23:12           0        2.33      24.460
  T4                   STORAGE      0.000    0.092     0  23:33           0        1.45       6.081
  T6                   STORAGE      0.000    0.290     0  23:38           0        4.73       9.180
  T3                   STORAGE      0.000    0.532     0  23:23           0        8.49      14.346
  T2                   STORAGE      0.000    0.244     0  23:17           0        2.35      11.198
  T1                   STORAGE      0.000    0.689     0  23:39           0        14.6       6.025
  
  
  **********************
  Node Surcharge Summary
  **********************
  
  No nodes were surcharged.
  
  
  *********************
  Node Flooding Summary
  *********************
  
  Flooding refers to all water that overflows a node, whether it ponds or not.
  --------------------------------------------------------------------------
                                                             Total   Maximum
                                 Maximum   Time of Max       Flood    Ponded
                        Hours       Rate    Occurrence      Volume     Depth
  Node                 Flooded       CMS   days hr:min    10^6 ltr    Meters
  --------------------------------------------------------------------------
  T1                      3.08     0.418      0  23:39       1.424     0.000
  
  
  **********************
  Storage Volume Summary
  **********************
  
  --------------------------------------------------------------------------------------------------
                         Average     Avg  Evap Exfil       Maximum     Max    Time of Max    Maximum
                          Volume    Pcnt  Pcnt  Pcnt        Volume    Pcnt     Occurrence    Outflow
  Storage Unit           1000 m3    Full  Loss  Loss       1000 m3    Full    days hr:min        CMS
  --------------------------------------------------------------------------------------------------
  T5                       0.125      25     0     0         0.459      92       0  23:40      0.038
  T4                       0.024       5     0     0         0.101      20       0  23:40      0.036
  T6                       0.067      11     0     0         0.266      44       0  23:40      0.116
  T3                       0.466      18     0     0         1.961      75       0  23:40      0.165
  T2                       0.042       4     0     0         0.241      24       0  23:40      0.068
  T1                       0.275      39     0     0         0.700     100       0  20:35      0.271
  
  
  ***********************
  Outfall Loading Summary
  ***********************
  
  -----------------------------------------------------------
                         Flow       Avg       Max       Total
                         Freq      Flow      Flow      Volume
  Outfall Node           Pcnt       CMS       CMS    10^6 ltr
  -----------------------------------------------------------
  Out_to_WWTP           99.43     0.138     0.271      11.681
  -----------------------------------------------------------
  System                99.43     0.138     0.271      11.681
  
  
  ********************
  Link Flow Summary
  ********************
  
  -----------------------------------------------------------------------------
                                 Maximum  Time of Max   Maximum    Max/    Max/
                                  |Flow|   Occurrence   |Veloc|    Full    Full
  Link                 Type          CMS  days hr:min     m/sec    Flow   Depth
  -----------------------------------------------------------------------------
  C1                   CONDUIT     0.037     0  23:40      0.75    0.01    0.11
  C6                   CONDUIT     0.038     0  23:37      1.15    0.60    0.47
  C2                   CONDUIT     0.035     0  23:40      0.91    0.04    0.19
  C9                   CONDUIT     0.055     0  23:39      1.00    0.19    0.32
  C16                  CONDUIT     0.265     0  23:18      1.47    0.03    0.11
  C3                   CONDUIT     0.164     0  23:40      1.98    0.06    0.16
  C19                  CONDUIT     0.067     0  23:40      0.73    0.02    0.19
  C11                  CONDUIT     0.234     0  23:40      1.62    0.01    0.11
  C20                  CONDUIT     0.342     0  23:12      2.05    0.01    0.10
  C22                  CONDUIT     0.106     0  23:13      1.11    0.05    0.25
  C12                  CONDUIT     0.114     0  23:40      1.13    0.01    0.09
  C17                  CONDUIT     0.447     0  23:18      2.35    0.02    0.11
  C10                  CONDUIT     0.290     0  23:38      0.94    0.03    0.56
  C13                  CONDUIT     0.532     0  23:23      0.85    0.03    0.56
  C18                  CONDUIT     0.244     0  23:17      1.01    0.01    0.33
  C23                  CONDUIT     0.689     0  23:39      0.86    0.08    0.59
  C4                   CONDUIT     0.159     0  23:12      1.13    0.04    0.57
  C7                   CONDUIT     0.092     0  23:33      0.90    0.02    0.55
  C14                  CONDUIT     0.271     0  20:36      2.08    0.02    0.09
  C5                   CONDUIT     0.041     0  23:32      1.18    0.71    0.65
  C8                   CONDUIT     0.059     0  23:37      1.28    0.74    0.56
  C15                  CONDUIT     0.295     0  23:16      2.70    0.94    0.64
  C21                  CONDUIT     0.112     0  23:11      1.68    0.64    0.45
  V4                   ORIFICE     0.036     0  23:40                      1.00
  V5                   ORIFICE     0.038     0  23:40                      1.00
  V1                   ORIFICE     0.271     0  20:35                      1.00
  V6                   ORIFICE     0.116     0  23:40                      1.00
  V3                   ORIFICE     0.165     0  23:40                      1.00
  V2                   ORIFICE     0.068     0  23:40                      1.00
  
  
  ***************************
  Flow Classification Summary
  ***************************
  
  -------------------------------------------------------------------------------------
                      Adjusted    ---------- Fraction of Time in Flow Class ---------- 
                       /Actual         Up    Down  Sub   Sup   Up    Down  Norm  Inlet 
  Conduit               Length    Dry  Dry   Dry   Crit  Crit  Crit  Crit  Ltd   Ctrl  
  -------------------------------------------------------------------------------------
  C1                      1.00   0.00  0.00  0.00  0.93  0.07  0.00  0.00  0.97  0.00
  C6                      1.00   0.00  0.00  0.00  0.01  0.99  0.00  0.00  0.00  0.00
  C2                      1.00   0.00  0.00  0.00  0.32  0.67  0.00  0.00  0.97  0.00
  C9                      1.00   0.00  0.00  0.00  1.00  0.00  0.00  0.00  1.00  0.00
  C16                     1.00   0.00  0.25  0.00  0.43  0.32  0.00  0.00  0.42  0.00
  C3                      1.00   0.00  0.00  0.00  0.04  0.96  0.00  0.00  0.07  0.00
  C19                     1.00   0.00  0.00  0.00  1.00  0.00  0.00  0.00  1.00  0.00
  C11                     1.00   0.00  0.00  0.00  0.03  0.96  0.00  0.00  1.00  0.00
  C20                     1.00   0.00  0.00  0.00  0.80  0.20  0.00  0.00  0.99  0.00
  C22                     1.00   0.00  0.00  0.00  1.00  0.00  0.00  0.00  1.00  0.00
  C12                     1.00   0.00  0.00  0.00  0.21  0.79  0.00  0.00  0.91  0.00
  C17                     1.00   0.00  0.00  0.00  0.34  0.66  0.00  0.00  0.99  0.00
  C10                     1.00   0.00  0.00  0.00  0.77  0.23  0.00  0.00  0.98  0.00
  C13                     1.00   0.00  0.00  0.00  0.76  0.24  0.00  0.00  0.92  0.00
  C18                     1.00   0.00  0.00  0.00  0.60  0.40  0.00  0.00  0.98  0.00
  C23                     1.00   0.00  0.00  0.00  0.80  0.20  0.00  0.00  0.96  0.00
  C4                      1.00   0.00  0.00  0.00  0.82  0.18  0.00  0.00  0.98  0.00
  C7                      1.00   0.00  0.00  0.00  0.74  0.26  0.00  0.00  0.83  0.00
  C14                     1.00   0.00  0.00  0.00  0.00  1.00  0.00  0.00  0.39  0.00
  C5                      1.00   0.00  0.00  0.00  0.91  0.09  0.00  0.00  0.98  0.00
  C8                      1.00   0.00  0.00  0.00  0.14  0.86  0.00  0.00  0.00  0.00
  C15                     1.00   0.25  0.00  0.00  0.00  0.75  0.00  0.00  0.00  0.00
  C21                     1.00   0.00  0.00  0.00  0.00  1.00  0.00  0.00  0.00  0.00
  
  
  *************************
  Conduit Surcharge Summary
  *************************
  
  ----------------------------------------------------------------------------
                                                           Hours        Hours 
                         --------- Hours Full --------   Above Full   Capacity
  Conduit                Both Ends  Upstream  Dnstream   Normal Flow   Limited
  ----------------------------------------------------------------------------
  C10                         0.01      0.01      1.14      0.01         0.01
  C13                         0.01      0.01      5.12      0.01         0.01
  C23                         0.01      0.01      8.90      0.01         0.01
  C4                          0.01      0.01     10.00      0.01         0.01
  C7                          0.01      0.01      0.01      0.01         0.01
  

  Analysis begun on:  Mon Sep 20 18:49:22 2021
  Analysis ended on:  Mon Sep 20 18:49:22 2021
  Total elapsed time: < 1 sec