
  EPA STORM WATER MANAGEMENT MODEL - VERSION 5.1 (Build 5.3.0.dev0)
  --------------------------------------------------------------

  WARNING 09: time series interval greater than recording interval for Rain Gage RG1
  WARNING 09: time series interval greater than recording interval for Rain Gage RG2
  WARNING 09: time series interval greater than recording interval for Rain Gage RG3
  WARNING 09: time series interval greater than recording interval for Rain Gage RG4
  
  *********************************************************
  NOTE: The summary statistics displayed in this report are
  based on results found at every computational time step,  
  not just on results from each reporting time step.
  *********************************************************
  
  ****************
  Analysis Options
  ****************
  Flow Units ............... CMS
  Process Models:
    Rainfall/Runoff ........ YES
    RDII ................... NO
    Snowmelt ............... NO
    Groundwater ............ NO
    Flow Routing ........... YES
    Ponding Allowed ........ YES
    Water Quality .......... NO
  Infiltration Method ...... HORTON
  Flow Routing Method ...... DYNWAVE
  Surcharge Method ......... EXTRAN
  Starting Date ............ 08/28/2015 00:00:00
  Ending Date .............. 08/28/2015 23:40:00
  Antecedent Dry Days ...... 0.0
  Report Time Step ......... 00:01:00
  Wet Time Step ............ 00:01:00
  Dry Time Step ............ 00:01:00
  Routing Time Step ........ 5.00 sec
  Variable Time Step ....... YES
  Maximum Trials ........... 8
  Number of Threads ........ 1
  Head Tolerance ........... 0.001500 m
  
  
  **************************        Volume         Depth
  Runoff Quantity Continuity     hectare-m            mm
  **************************     ---------       -------
  Total Precipitation ......         1.952        10.832
  Evaporation Loss .........         0.000         0.000
  Infiltration Loss ........         0.000         0.000
  Surface Runoff ...........         1.926        10.690
  Final Storage ............         0.027         0.147
  Continuity Error (%) .....        -0.051
  
  
  **************************        Volume        Volume
  Flow Routing Continuity        hectare-m      10^6 ltr
  **************************     ---------     ---------
  Dry Weather Inflow .......         0.758         7.576
  Wet Weather Inflow .......         1.926        19.263
  Groundwater Inflow .......         0.000         0.000
  RDII Inflow ..............         0.000         0.000
  External Inflow ..........         0.000         0.000
  External Outflow .........         1.968        19.685
  Flooding Loss ............         0.299         2.986
  Evaporation Loss .........         0.000         0.000
  Exfiltration Loss ........         0.000         0.000
  Initial Stored Volume ....         0.000         0.000
  Final Stored Volume ......         0.341         3.412
  Continuity Error (%) .....         2.818
  
  
  *************************
  Highest Continuity Errors
  *************************
  Node T5 (10.93%)
  Node T3 (6.25%)
  Node T1 (2.99%)
  
  
  ***************************
  Time-Step Critical Elements
  ***************************
  None
  
  
  ********************************
  Highest Flow Instability Indexes
  ********************************
  All links are stable.
  
  
  *************************
  Routing Time Step Summary
  *************************
  Minimum Time Step           :     4.50 sec
  Average Time Step           :     5.00 sec
  Maximum Time Step           :     5.00 sec
  Percent in Steady State     :     0.00
  Average Iterations per Step :     2.00
  Percent Not Converging      :     0.00
  
  
  ***************************
  Subcatchment Runoff Summary
  ***************************
  
  ------------------------------------------------------------------------------------------------------------------------------
                            Total      Total      Total      Total     Imperv       Perv      Total       Total     Peak  Runoff
                           Precip      Runon       Evap      Infil     Runoff     Runoff     Runoff      Runoff   Runoff   Coeff
  Subcatchment                 mm         mm         mm         mm         mm         mm         mm    10^6 ltr      CMS
  ------------------------------------------------------------------------------------------------------------------------------
  SC01                      12.02       0.00       0.00       0.00      11.93       0.00      11.93        3.94     0.28   0.993
  SC02                      11.07       0.00       0.00       0.00      10.99       0.00      10.99        2.50     0.19   0.992
  SC03                      10.52       0.00       0.00       0.00      10.46       0.00      10.46        1.88     0.21   0.995
  SC04                      11.07       0.00       0.00       0.00      10.89       0.00      10.89        0.75     0.05   0.984
  SC05                      12.02       0.00       0.00       0.00      11.93       0.00      11.93        1.86     0.13   0.992
  SC06                       9.17       0.00       0.00       0.00       8.85       0.00       8.85        2.88     0.16   0.965
  SC07                      11.07       0.00       0.00       0.00      10.89       0.00      10.89        0.52     0.03   0.984
  SC08                      10.52       0.00       0.00       0.00      10.41       0.00      10.41        2.92     0.25   0.990
  SC09                       9.17       0.00       0.00       0.00       8.95       0.00       8.95        0.62     0.04   0.976
  SC010                     12.02       0.00       0.00       0.00      11.90       0.00      11.90        1.40     0.09   0.990
  
  
  ******************
  Node Depth Summary
  ******************
  
  ---------------------------------------------------------------------------------
                                 Average  Maximum  Maximum  Time of Max    Reported
                                   Depth    Depth      HGL   Occurrence   Max Depth
  Node                 Type       Meters   Meters   Meters  days hr:min      Meters
  ---------------------------------------------------------------------------------
  J1                   JUNCTION     0.06     0.12    34.12     0  17:47        0.12
  J3                   JUNCTION     0.12     0.15    18.15     0  19:03        0.15
  CSO7                 JUNCTION     0.08     0.14    34.14     0  17:46        0.14
  J5                   JUNCTION     0.05     0.10    32.10     0  03:22        0.10
  CSO9                 JUNCTION     0.08     0.16    40.16     0  03:07        0.16
  J8                   JUNCTION     0.08     0.15    36.15     0  18:18        0.15
  CSO8                 JUNCTION     0.09     0.32    32.32     0  02:51        0.31
  J10                  JUNCTION     0.07     0.19    29.19     0  02:52        0.19
  J13                  JUNCTION     0.05     0.12    29.12     0  03:02        0.12
  J15                  JUNCTION     0.17     0.26    15.26     0  18:17        0.26
  J16                  JUNCTION     0.06     0.13    30.13     0  03:06        0.13
  CSO10                JUNCTION     0.10     0.24    30.24     0  17:46        0.24
  J12                  JUNCTION     0.12     0.22    26.22     0  02:58        0.22
  J4                   JUNCTION     0.09     0.17    33.17     0  18:18        0.16
  J6                   JUNCTION     0.07     0.09    25.09     0  18:53        0.09
  J2                   JUNCTION     0.06     0.08    25.08     0  18:54        0.08
  J19                  JUNCTION     0.15     0.17     8.17     0  04:15        0.17
  J9                   JUNCTION     0.10     0.13    29.13     0  04:54        0.13
  J14                  JUNCTION     0.14     0.17    20.17     0  19:51        0.17
  J17                  JUNCTION     0.08     0.11    20.11     0  04:42        0.11
  J7                   JUNCTION     0.06     0.12    39.12     0  03:13        0.12
  J11                  JUNCTION     0.07     0.21    31.21     0  02:53        0.21
  J18                  JUNCTION     0.05     0.11    29.11     0  03:08        0.11
  Out_to_WWTP          OUTFALL      0.15     0.17     6.17     0  11:29        0.17
  T5                   STORAGE      2.71     5.00    32.00     0  18:38        5.00
  T4                   STORAGE      0.57     1.40    28.40     0  18:51        1.40
  T6                   STORAGE      0.89     2.16    33.16     0  04:52        2.16
  T3                   STORAGE      2.05     3.49    25.49     0  19:45        3.49
  T2                   STORAGE      0.53     1.45    22.45     0  04:40        1.45
  T1                   STORAGE      4.13     5.00    15.00     0  04:13        5.00
  
  
  *******************
  Node Inflow Summary
  *******************
  
  -------------------------------------------------------------------------------------------------
                                  Maximum  Maximum                  Lateral       Total        Flow
                                  Lateral    Total  Time of Max      Inflow      Inflow     Balance
                                   Inflow   Inflow   Occurrence      Volume      Volume       Error
  Node                 Type           CMS      CMS  days hr:min    10^6 ltr    10^6 ltr     Percent
  -------------------------------------------------------------------------------------------------
  J1                   JUNCTION     0.139    0.139     0  17:46        2.95        2.95      -0.072
  J3                   JUNCTION     0.000    0.238     0  19:01           0          14       0.256
  CSO7                 JUNCTION     0.035    0.035     0  17:46        1.08        1.08       0.013
  J5                   JUNCTION     0.048    0.079     0  03:21           1        2.08      -0.058
  CSO9                 JUNCTION     0.040    0.040     0  03:06       0.999       0.999       0.020
  J8                   JUNCTION     0.172    0.205     0  18:16        4.71        5.71      -0.031
  CSO8                 JUNCTION     0.253    0.253     0  02:51        3.36        3.36      -0.002
  J10                  JUNCTION     0.216    0.415     0  02:51        2.63           6      -0.018
  J13                  JUNCTION     0.190    0.190     0  02:56        3.41        3.41      -0.256
  J15                  JUNCTION     0.000    0.605     0  18:12           0        24.1       0.306
  J16                  JUNCTION     0.285    0.285     0  17:46        5.02        5.02      -0.051
  CSO10                JUNCTION     0.091    0.091     0  17:46        1.67        1.67       0.007
  J12                  JUNCTION     0.000    0.433     0  02:52           0        11.7       0.011
  J4                   JUNCTION     0.000    0.034     0  17:46           0        1.08       0.119
  J6                   JUNCTION     0.000    0.042     0  18:51           0        2.07       0.077
  J2                   JUNCTION     0.000    0.039     0  18:38           0        2.31       0.218
  J19                  JUNCTION     0.000    0.271     0  04:13           0        19.7       0.061
  J9                   JUNCTION     0.000    0.114     0  04:52           0        5.67       0.212
  J14                  JUNCTION     0.000    0.158     0  19:45           0        9.65       0.081
  J17                  JUNCTION     0.000    0.075     0  04:40           0         3.4       0.068
  J7                   JUNCTION     0.000    0.039     0  03:12           0       0.999       0.158
  J11                  JUNCTION     0.000    0.250     0  02:51           0        3.36       0.053
  J18                  JUNCTION     0.000    0.087     0  17:47           0        1.67      -0.027
  Out_to_WWTP          OUTFALL      0.000    0.271     0  04:15           0        19.7       0.000
  T5                   STORAGE      0.000    0.129     0  17:47           0        2.96      12.272
  T4                   STORAGE      0.000    0.077     0  03:22           0        2.08       0.188
  T6                   STORAGE      0.000    0.197     0  18:18           0        5.71       0.390
  T3                   STORAGE      0.000    0.425     0  02:58           0        11.7       6.664
  T2                   STORAGE      0.000    0.177     0  03:02           0        3.42       0.305
  T1                   STORAGE      0.000    0.580     0  18:17           0          24       3.086
  
  
  **********************
  Node Surcharge Summary
  **********************
  
  No nodes were surcharged.
  
  
  *********************
  Node Flooding Summary
  *********************
  
  Flooding refers to all water that overflows a node, whether it ponds or not.
  --------------------------------------------------------------------------
                                                             Total   Maximum
                                 Maximum   Time of Max       Flood    Ponded
                        Hours       Rate    Occurrence      Volume     Depth
  Node                 Flooded       CMS   days hr:min    10^6 ltr    Meters
  --------------------------------------------------------------------------
  T5                      0.26     0.019      0  18:38       0.008     0.000
  T1                      8.52     0.309      0  18:17       2.977     0.000
  
  
  **********************
  Storage Volume Summary
  **********************
  
  --------------------------------------------------------------------------------------------------
                         Average     Avg  Evap Exfil       Maximum     Max    Time of Max    Maximum
                          Volume    Pcnt  Pcnt  Pcnt        Volume    Pcnt     Occurrence    Outflow
  Storage Unit           1000 m3    Full  Loss  Loss       1000 m3    Full    days hr:min        CMS
  --------------------------------------------------------------------------------------------------
  T5                       0.271      54     0     0         0.500     100       0  18:38      0.039
  T4                       0.057      11     0     0         0.140      28       0  18:51      0.042
  T6                       0.107      18     0     0         0.259      43       0  04:52      0.114
  T3                       1.066      41     0     0         1.813      70       0  19:45      0.158
  T2                       0.107      11     0     0         0.290      29       0  04:40      0.075
  T1                       0.578      83     0     0         0.700     100       0  04:13      0.271
  
  
  ***********************
  Outfall Loading Summary
  ***********************
  
  -----------------------------------------------------------
                         Flow       Avg       Max       Total
                         Freq      Flow      Flow      Volume
  Outfall Node           Pcnt       CMS       CMS    10^6 ltr
  -----------------------------------------------------------
  Out_to_WWTP           99.43     0.232     0.271      19.685
  -----------------------------------------------------------
  System                99.43     0.232     0.271      19.685
  
  
  ********************
  Link Flow Summary
  ********************
  
  -----------------------------------------------------------------------------
                                 Maximum  Time of Max   Maximum    Max/    Max/
                                  |Flow|   Occurrence   |Veloc|    Full    Full
  Link                 Type          CMS  days hr:min     m/sec    Flow   Depth
  -----------------------------------------------------------------------------
  C1                   CONDUIT     0.039     0  18:54      0.78    0.01    0.12
  C6                   CONDUIT     0.033     0  18:18      1.12    0.52    0.43
  C2                   CONDUIT     0.042     0  18:53      1.11    0.05    0.20
  C9                   CONDUIT     0.037     0  03:13      0.90    0.13    0.27
  C16                  CONDUIT     0.229     0  02:53      1.40    0.02    0.10
  C3                   CONDUIT     0.158     0  19:45      1.93    0.06    0.16
  C19                  CONDUIT     0.075     0  04:42      0.95    0.03    0.18
  C11                  CONDUIT     0.238     0  19:03      1.79    0.01    0.10
  C20                  CONDUIT     0.265     0  03:07      1.95    0.01    0.10
  C22                  CONDUIT     0.083     0  03:08      1.06    0.04    0.22
  C12                  CONDUIT     0.114     0  04:54      1.24    0.01    0.08
  C17                  CONDUIT     0.396     0  02:52      2.37    0.02    0.10
  C10                  CONDUIT     0.197     0  18:18      1.22    0.02    0.55
  C13                  CONDUIT     0.425     0  02:58      1.81    0.02    0.55
  C18                  CONDUIT     0.177     0  03:02      1.63    0.01    0.38
  C23                  CONDUIT     0.580     0  18:17      1.35    0.06    0.59
  C4                   CONDUIT     0.129     0  17:47      1.22    0.03    0.56
  C7                   CONDUIT     0.077     0  03:22      1.26    0.02    0.55
  C14                  CONDUIT     0.271     0  04:15      2.08    0.02    0.09
  C5                   CONDUIT     0.034     0  17:46      1.10    0.59    0.59
  C8                   CONDUIT     0.039     0  03:12      1.15    0.49    0.44
  C15                  CONDUIT     0.250     0  02:51      2.61    0.80    0.58
  C21                  CONDUIT     0.087     0  17:47      1.58    0.50    0.39
  V4                   ORIFICE     0.042     0  18:51                      1.00
  V5                   ORIFICE     0.039     0  18:38                      1.00
  V1                   ORIFICE     0.271     0  04:13                      1.00
  V6                   ORIFICE     0.114     0  04:52                      1.00
  V3                   ORIFICE     0.158     0  19:45                      1.00
  V2                   ORIFICE     0.075     0  04:40                      1.00
  
  
  ***************************
  Flow Classification Summary
  ***************************
  
  -------------------------------------------------------------------------------------
                      Adjusted    ---------- Fraction of Time in Flow Class ---------- 
                       /Actual         Up    Down  Sub   Sup   Up    Down  Norm  Inlet 
  Conduit               Length    Dry  Dry   Dry   Crit  Crit  Crit  Crit  Ltd   Ctrl  
  -------------------------------------------------------------------------------------
  C1                      1.00   0.00  0.00  0.00  0.93  0.07  0.00  0.00  0.97  0.00
  C6                      1.00   0.00  0.00  0.00  0.01  0.99  0.00  0.00  0.00  0.00
  C2                      1.00   0.00  0.00  0.00  0.58  0.42  0.00  0.00  0.97  0.00
  C9                      1.00   0.00  0.00  0.00  1.00  0.00  0.00  0.00  1.00  0.00
  C16                     1.00   0.00  0.08  0.00  0.51  0.42  0.00  0.00  0.46  0.00
  C3                      1.00   0.00  0.00  0.00  0.04  0.96  0.00  0.00  0.07  0.00
  C19                     1.00   0.00  0.00  0.00  1.00  0.00  0.00  0.00  1.00  0.00
  C11                     1.00   0.00  0.00  0.00  0.08  0.92  0.00  0.00  1.00  0.00
  C20                     1.00   0.00  0.00  0.00  0.74  0.26  0.00  0.00  0.99  0.00
  C22                     1.00   0.00  0.00  0.00  1.00  0.00  0.00  0.00  1.00  0.00
  C12                     1.00   0.00  0.00  0.00  0.32  0.68  0.00  0.00  0.81  0.00
  C17                     1.00   0.00  0.00  0.00  0.55  0.45  0.00  0.00  0.97  0.00
  C10                     1.00   0.00  0.00  0.00  0.88  0.12  0.00  0.00  0.97  0.00
  C13                     1.00   0.00  0.00  0.00  0.89  0.11  0.00  0.00  0.90  0.00
  C18                     1.00   0.00  0.00  0.00  0.89  0.11  0.00  0.00  0.97  0.00
  C23                     1.00   0.00  0.00  0.00  0.89  0.11  0.00  0.00  0.96  0.00
  C4                      1.00   0.00  0.00  0.00  0.89  0.11  0.00  0.00  0.98  0.00
  C7                      1.00   0.00  0.00  0.00  0.88  0.12  0.00  0.00  0.89  0.00
  C14                     1.00   0.00  0.00  0.00  0.00  1.00  0.00  0.00  0.27  0.00
  C5                      1.00   0.00  0.00  0.00  0.92  0.08  0.00  0.00  0.98  0.00
  C8                      1.00   0.00  0.00  0.00  0.12  0.88  0.00  0.00  0.00  0.00
  C15                     1.00   0.08  0.00  0.00  0.00  0.92  0.00  0.00  0.00  0.00
  C21                     1.00   0.00  0.00  0.00  0.00  1.00  0.00  0.00  0.00  0.00
  
  
  *************************
  Conduit Surcharge Summary
  *************************
  
  ----------------------------------------------------------------------------
                                                           Hours        Hours 
                         --------- Hours Full --------   Above Full   Capacity
  Conduit                Both Ends  Upstream  Dnstream   Normal Flow   Limited
  ----------------------------------------------------------------------------
  C10                         0.01      0.01      4.84      0.01         0.01
  C13                         0.01      0.01     12.35      0.01         0.01
  C23                         0.01      0.01     20.54      0.01         0.01
  C4                          0.01      0.01     20.45      0.01         0.01
  C7                          0.01      0.01      4.64      0.01         0.01
  

  Analysis begun on:  Mon Sep 20 18:56:32 2021
  Analysis ended on:  Mon Sep 20 18:56:32 2021
  Total elapsed time: < 1 sec