
  EPA STORM WATER MANAGEMENT MODEL - VERSION 5.1 (Build 5.3.0.dev0)
  --------------------------------------------------------------

  WARNING 09: time series interval greater than recording interval for Rain Gage RG1
  WARNING 09: time series interval greater than recording interval for Rain Gage RG2
  WARNING 09: time series interval greater than recording interval for Rain Gage RG3
  WARNING 09: time series interval greater than recording interval for Rain Gage RG4
  
  *********************************************************
  NOTE: The summary statistics displayed in this report are
  based on results found at every computational time step,  
  not just on results from each reporting time step.
  *********************************************************
  
  ****************
  Analysis Options
  ****************
  Flow Units ............... CMS
  Process Models:
    Rainfall/Runoff ........ YES
    RDII ................... NO
    Snowmelt ............... NO
    Groundwater ............ NO
    Flow Routing ........... YES
    Ponding Allowed ........ YES
    Water Quality .......... NO
  Infiltration Method ...... HORTON
  Flow Routing Method ...... DYNWAVE
  Surcharge Method ......... EXTRAN
  Starting Date ............ 08/28/2015 00:00:00
  Ending Date .............. 08/28/2015 23:40:00
  Antecedent Dry Days ...... 0.0
  Report Time Step ......... 00:01:00
  Wet Time Step ............ 00:01:00
  Dry Time Step ............ 00:01:00
  Routing Time Step ........ 5.00 sec
  Variable Time Step ....... YES
  Maximum Trials ........... 8
  Number of Threads ........ 1
  Head Tolerance ........... 0.001500 m
  
  
  **************************        Volume         Depth
  Runoff Quantity Continuity     hectare-m            mm
  **************************     ---------       -------
  Total Precipitation ......         2.389        13.260
  Evaporation Loss .........         0.000         0.000
  Infiltration Loss ........         0.000         0.000
  Surface Runoff ...........         2.285        12.678
  Final Storage ............         0.107         0.595
  Continuity Error (%) .....        -0.096
  
  
  **************************        Volume        Volume
  Flow Routing Continuity        hectare-m      10^6 ltr
  **************************     ---------     ---------
  Dry Weather Inflow .......         0.758         7.576
  Wet Weather Inflow .......         2.284        22.836
  Groundwater Inflow .......         0.000         0.000
  RDII Inflow ..............         0.000         0.000
  External Inflow ..........         0.000         0.000
  External Outflow .........         1.680        16.800
  Flooding Loss ............         0.777         7.767
  Evaporation Loss .........         0.000         0.000
  Exfiltration Loss ........         0.000         0.000
  Initial Stored Volume ....         0.000         0.000
  Final Stored Volume ......         0.473         4.728
  Continuity Error (%) .....         3.672
  
  
  *************************
  Highest Continuity Errors
  *************************
  Node T5 (8.67%)
  Node T3 (7.79%)
  Node T1 (3.33%)
  Node T6 (2.86%)
  Node T2 (2.04%)
  
  
  ***************************
  Time-Step Critical Elements
  ***************************
  None
  
  
  ********************************
  Highest Flow Instability Indexes
  ********************************
  Link C15 (1)
  
  
  *************************
  Routing Time Step Summary
  *************************
  Minimum Time Step           :     4.50 sec
  Average Time Step           :     5.00 sec
  Maximum Time Step           :     5.00 sec
  Percent in Steady State     :     0.00
  Average Iterations per Step :     2.07
  Percent Not Converging      :     0.19
  
  
  ***************************
  Subcatchment Runoff Summary
  ***************************
  
  ------------------------------------------------------------------------------------------------------------------------------
                            Total      Total      Total      Total     Imperv       Perv      Total       Total     Peak  Runoff
                           Precip      Runon       Evap      Infil     Runoff     Runoff     Runoff      Runoff   Runoff   Coeff
  Subcatchment                 mm         mm         mm         mm         mm         mm         mm    10^6 ltr      CMS
  ------------------------------------------------------------------------------------------------------------------------------
  SC01                      15.04       0.00       0.00       0.00      14.62       0.00      14.62        4.82     0.75   0.972
  SC02                      10.77       0.00       0.00       0.00      10.31       0.00      10.31        2.34     0.24   0.957
  SC03                      12.59       0.00       0.00       0.00      12.28       0.00      12.28        2.21     0.38   0.975
  SC04                      10.77       0.00       0.00       0.00       9.97       0.00       9.97        0.69     0.06   0.926
  SC05                      15.04       0.00       0.00       0.00      14.59       0.00      14.59        2.28     0.35   0.970
  SC06                      13.49       0.00       0.00       0.00      12.52       0.00      12.52        4.08     0.36   0.928
  SC07                      10.77       0.00       0.00       0.00       9.98       0.00       9.98        0.47     0.04   0.926
  SC08                      12.59       0.00       0.00       0.00      12.01       0.00      12.01        3.36     0.43   0.954
  SC09                      13.49       0.00       0.00       0.00      12.82       0.00      12.82        0.88     0.09   0.950
  SC010                     15.04       0.00       0.00       0.00      14.51       0.00      14.51        1.70     0.25   0.964
  
  
  ******************
  Node Depth Summary
  ******************
  
  ---------------------------------------------------------------------------------
                                 Average  Maximum  Maximum  Time of Max    Reported
                                   Depth    Depth      HGL   Occurrence   Max Depth
  Node                 Type       Meters   Meters   Meters  days hr:min      Meters
  ---------------------------------------------------------------------------------
  J1                   JUNCTION     0.06     0.20    34.20     0  11:21        0.20
  J3                   JUNCTION     0.12     0.17    18.17     0  12:19        0.17
  CSO7                 JUNCTION     0.07     0.19    34.19     0  11:21        0.19
  J5                   JUNCTION     0.05     0.11    32.11     0  11:27        0.11
  CSO9                 JUNCTION     0.09     1.04    41.04     0  11:16        0.95
  J8                   JUNCTION     0.09     0.22    36.22     0  11:27        0.22
  CSO8                 JUNCTION     0.10     2.00    34.00     0  11:10        1.97
  J10                  JUNCTION     0.08     0.25    29.25     0  11:13        0.25
  J13                  JUNCTION     0.05     0.13    29.13     0  11:22        0.13
  J15                  JUNCTION     0.17     0.37    15.37     0  11:23        0.37
  J16                  JUNCTION     0.06     0.21    30.21     0  11:21        0.21
  CSO10                JUNCTION     0.11     1.00    31.00     0  11:06        1.00
  J12                  JUNCTION     0.32     0.98    26.98     0  13:38        0.98
  J4                   JUNCTION     0.09     0.22    33.22     0  11:28        0.22
  J6                   JUNCTION     0.06     0.10    25.10     0  12:00        0.10
  J2                   JUNCTION     0.06     0.08    25.08     0  11:44        0.08
  J19                  JUNCTION     0.14     0.17     8.17     0  09:08        0.17
  J9                   JUNCTION     0.10     0.16    29.16     0  12:16        0.16
  J14                  JUNCTION     0.14     0.19    20.19     0  14:26        0.19
  J17                  JUNCTION     0.07     0.12    20.12     0  11:50        0.12
  J7                   JUNCTION     0.07     0.19    39.19     0  11:27        0.19
  J11                  JUNCTION     0.07     0.27    31.27     0  11:17        0.27
  J18                  JUNCTION     0.05     0.16    29.16     0  11:23        0.16
  Out_to_WWTP          OUTFALL      0.14     0.17     6.17     0  18:37        0.17
  T5                   STORAGE      2.50     5.00    32.00     0  10:55        5.00
  T4                   STORAGE      0.62     2.51    29.51     0  11:59        2.51
  T6                   STORAGE      1.36     5.00    36.00     0  11:20        5.00
  T3                   STORAGE      2.60     4.99    26.99     0  13:42        4.99
  T2                   STORAGE      0.56     2.30    23.30     0  11:48        2.30
  T1                   STORAGE      3.33     5.00    15.00     0  09:06        5.00
  
  
  *******************
  Node Inflow Summary
  *******************
  
  -------------------------------------------------------------------------------------------------
                                  Maximum  Maximum                  Lateral       Total        Flow
                                  Lateral    Total  Time of Max      Inflow      Inflow     Balance
                                   Inflow   Inflow   Occurrence      Volume      Volume       Error
  Node                 Type           CMS      CMS  days hr:min    10^6 ltr    10^6 ltr     Percent
  -------------------------------------------------------------------------------------------------
  J1                   JUNCTION     0.370    0.370     0  11:21        3.37        3.37       0.079
  J3                   JUNCTION     0.000    0.283     0  12:17           0        14.1       0.291
  CSO7                 JUNCTION     0.053    0.053     0  11:21        1.04        1.04       0.053
  J5                   JUNCTION     0.065    0.112     0  11:21       0.936        1.97       0.135
  CSO9                 JUNCTION     0.096    0.096     0  11:26        1.27        1.27       0.054
  J8                   JUNCTION     0.403    0.486     0  11:26        5.91        7.17       0.167
  CSO8                 JUNCTION     0.444    0.444     0  11:11        3.81        3.81       0.031
  J10                  JUNCTION     0.393    0.711     0  11:11        2.96        6.75       0.148
  J13                  JUNCTION     0.258    0.258     0  11:21        3.25        3.25      -0.056
  J15                  JUNCTION     0.000    1.262     0  11:21           0          25       0.446
  J16                  JUNCTION     0.774    0.774     0  11:21         5.9         5.9       0.067
  CSO10                JUNCTION     0.253    0.253     0  11:21        1.97        1.97       0.016
  J12                  JUNCTION     0.000    0.844     0  11:17           0          13       0.458
  J4                   JUNCTION     0.000    0.052     0  11:21           0        1.04       0.380
  J6                   JUNCTION     0.000    0.056     0  11:59           0         1.9       0.178
  J2                   JUNCTION     0.000    0.039     0  10:55           0         2.1       0.225
  J19                  JUNCTION     0.000    0.271     0  09:07           0        16.8       0.075
  J9                   JUNCTION     0.000    0.175     0  11:20           0        6.28       0.201
  J14                  JUNCTION     0.000    0.189     0  13:42           0        10.1       0.089
  J17                  JUNCTION     0.000    0.095     0  11:48           0         3.1       0.236
  J7                   JUNCTION     0.000    0.096     0  11:26           0        1.26       0.427
  J11                  JUNCTION     0.000    0.444     0  11:11           0        3.81       0.445
  J18                  JUNCTION     0.000    0.202     0  11:23           0        1.96       0.216
  Out_to_WWTP          OUTFALL      0.000    0.271     0  09:08           0        16.8       0.000
  T5                   STORAGE      0.000    0.345     0  11:21           0        3.37       9.490
  T4                   STORAGE      0.000    0.110     0  11:27           0        1.97       1.382
  T6                   STORAGE      0.000    0.467     0  11:27           0        7.15       2.943
  T3                   STORAGE      0.000    0.828     0  11:18           0          13       8.442
  T2                   STORAGE      0.000    0.240     0  11:22           0        3.26       2.079
  T1                   STORAGE      0.000    1.183     0  11:23           0        24.9       3.447
  
  
  **********************
  Node Surcharge Summary
  **********************
  
  Surcharging occurs when water rises above the top of the highest conduit.
  ---------------------------------------------------------------------
                                               Max. Height   Min. Depth
                                   Hours       Above Crown    Below Rim
  Node                 Type      Surcharged         Meters       Meters
  ---------------------------------------------------------------------
  CSO9                 JUNCTION        0.28          0.719        0.963
  CSO8                 JUNCTION        0.34          1.547        0.000
  CSO10                JUNCTION        0.43          0.560        0.000
  
  
  *********************
  Node Flooding Summary
  *********************
  
  Flooding refers to all water that overflows a node, whether it ponds or not.
  --------------------------------------------------------------------------
                                                             Total   Maximum
                                 Maximum   Time of Max       Flood    Ponded
                        Hours       Rate    Occurrence      Volume     Depth
  Node                 Flooded       CMS   days hr:min    10^6 ltr    Meters
  --------------------------------------------------------------------------
  CSO8                    0.01     0.046      0  11:10       0.000     0.000
  CSO10                   0.13     0.051      0  11:21       0.009     0.000
  T5                      1.63     0.306      0  11:21       0.682     0.000
  T6                      0.94     0.292      0  11:27       0.538     0.000
  T1                     11.17     0.912      0  11:23       6.537     0.000
  
  
  **********************
  Storage Volume Summary
  **********************
  
  --------------------------------------------------------------------------------------------------
                         Average     Avg  Evap Exfil       Maximum     Max    Time of Max    Maximum
                          Volume    Pcnt  Pcnt  Pcnt        Volume    Pcnt     Occurrence    Outflow
  Storage Unit           1000 m3    Full  Loss  Loss       1000 m3    Full    days hr:min        CMS
  --------------------------------------------------------------------------------------------------
  T5                       0.250      50     0     0         0.500     100       0  10:55      0.039
  T4                       0.062      12     0     0         0.251      50       0  11:59      0.056
  T6                       0.164      27     0     0         0.600     100       0  11:20      0.175
  T3                       1.353      52     0     0         2.594     100       0  13:42      0.244
  T2                       0.111      11     0     0         0.460      46       0  11:48      0.095
  T1                       0.466      67     0     0         0.700     100       0  09:06      0.271
  
  
  ***********************
  Outfall Loading Summary
  ***********************
  
  -----------------------------------------------------------
                         Flow       Avg       Max       Total
                         Freq      Flow      Flow      Volume
  Outfall Node           Pcnt       CMS       CMS    10^6 ltr
  -----------------------------------------------------------
  Out_to_WWTP           99.43     0.198     0.271      16.800
  -----------------------------------------------------------
  System                99.43     0.198     0.271      16.800
  
  
  ********************
  Link Flow Summary
  ********************
  
  -----------------------------------------------------------------------------
                                 Maximum  Time of Max   Maximum    Max/    Max/
                                  |Flow|   Occurrence   |Veloc|    Full    Full
  Link                 Type          CMS  days hr:min     m/sec    Flow   Depth
  -----------------------------------------------------------------------------
  C1                   CONDUIT     0.039     0  11:44      0.77    0.01    0.12
  C6                   CONDUIT     0.049     0  11:28      1.24    0.78    0.55
  C2                   CONDUIT     0.056     0  12:00      1.20    0.06    0.22
  C9                   CONDUIT     0.087     0  11:27      1.15    0.30    0.41
  C16                  CONDUIT     0.387     0  11:17      1.64    0.04    0.13
  C3                   CONDUIT     0.189     0  13:43      2.08    0.07    0.18
  C19                  CONDUIT     0.095     0  11:50      0.98    0.03    0.24
  C11                  CONDUIT     0.283     0  12:19      1.88    0.01    0.13
  C20                  CONDUIT     0.714     0  11:21      2.63    0.02    0.14
  C22                  CONDUIT     0.201     0  11:23      1.40    0.09    0.33
  C12                  CONDUIT     0.175     0  12:16      1.13    0.01    0.28
  C17                  CONDUIT     0.674     0  11:13      2.67    0.03    0.26
  C10                  CONDUIT     0.467     0  11:27      1.03    0.05    0.57
  C13                  CONDUIT     0.828     0  11:18      1.22    0.05    0.75
  C18                  CONDUIT     0.240     0  11:22      1.01    0.01    0.53
  C23                  CONDUIT     1.183     0  11:23      1.04    0.13    0.62
  C4                   CONDUIT     0.345     0  11:21      1.13    0.08    0.60
  C7                   CONDUIT     0.110     0  11:27      0.88    0.03    0.56
  C14                  CONDUIT     0.271     0  09:08      2.08    0.02    0.09
  C5                   CONDUIT     0.052     0  11:21      1.21    0.89    0.78
  C8                   CONDUIT     0.096     0  11:26      1.43    1.20    0.79
  C15                  CONDUIT     0.444     0  11:11      3.34    1.41    0.79
  C21                  CONDUIT     0.202     0  11:23      1.84    1.16    0.69
  V4                   ORIFICE     0.056     0  11:59                      1.00
  V5                   ORIFICE     0.039     0  10:55                      1.00
  V1                   ORIFICE     0.271     0  09:07                      1.00
  V6                   ORIFICE     0.175     0  11:20                      1.00
  V3                   ORIFICE     0.189     0  13:42                      1.00
  V2                   ORIFICE     0.095     0  11:48                      1.00
  
  
  ***************************
  Flow Classification Summary
  ***************************
  
  -------------------------------------------------------------------------------------
                      Adjusted    ---------- Fraction of Time in Flow Class ---------- 
                       /Actual         Up    Down  Sub   Sup   Up    Down  Norm  Inlet 
  Conduit               Length    Dry  Dry   Dry   Crit  Crit  Crit  Crit  Ltd   Ctrl  
  -------------------------------------------------------------------------------------
  C1                      1.00   0.00  0.00  0.00  0.91  0.09  0.00  0.00  0.97  0.00
  C6                      1.00   0.00  0.00  0.00  0.01  0.99  0.00  0.00  0.00  0.00
  C2                      1.00   0.00  0.00  0.00  0.61  0.39  0.00  0.00  0.97  0.00
  C9                      1.00   0.00  0.00  0.00  1.00  0.00  0.00  0.00  1.00  0.00
  C16                     1.00   0.00  0.06  0.00  0.56  0.39  0.00  0.00  0.30  0.00
  C3                      1.00   0.00  0.00  0.00  0.04  0.96  0.00  0.00  0.07  0.00
  C19                     1.00   0.00  0.00  0.00  1.00  0.00  0.00  0.00  1.00  0.00
  C11                     1.00   0.00  0.00  0.00  0.15  0.85  0.00  0.00  1.00  0.00
  C20                     1.00   0.00  0.00  0.00  0.73  0.27  0.00  0.00  0.99  0.00
  C22                     1.00   0.00  0.00  0.00  0.97  0.03  0.00  0.00  1.00  0.00
  C12                     1.00   0.00  0.00  0.00  0.75  0.25  0.00  0.00  0.98  0.00
  C17                     1.00   0.00  0.00  0.00  0.54  0.46  0.00  0.00  0.99  0.00
  C10                     1.00   0.00  0.00  0.00  0.90  0.10  0.00  0.00  0.97  0.00
  C13                     1.00   0.00  0.00  0.00  0.90  0.10  0.00  0.00  0.58  0.00
  C18                     1.00   0.00  0.00  0.00  0.69  0.31  0.00  0.00  0.98  0.00
  C23                     1.00   0.00  0.00  0.00  0.91  0.09  0.00  0.00  0.96  0.00
  C4                      1.00   0.00  0.00  0.00  0.92  0.08  0.00  0.00  0.98  0.00
  C7                      1.00   0.00  0.00  0.00  0.77  0.23  0.00  0.00  0.91  0.00
  C14                     1.00   0.00  0.00  0.00  0.00  1.00  0.00  0.00  0.33  0.00
  C5                      1.00   0.00  0.00  0.00  0.91  0.09  0.00  0.00  0.99  0.00
  C8                      1.00   0.00  0.00  0.00  0.07  0.93  0.00  0.00  0.00  0.00
  C15                     1.00   0.06  0.00  0.00  0.01  0.93  0.00  0.00  0.02  0.00
  C21                     1.00   0.00  0.00  0.00  0.01  0.99  0.00  0.00  0.00  0.00
  
  
  *************************
  Conduit Surcharge Summary
  *************************
  
  ----------------------------------------------------------------------------
                                                           Hours        Hours 
                         --------- Hours Full --------   Above Full   Capacity
  Conduit                Both Ends  Upstream  Dnstream   Normal Flow   Limited
  ----------------------------------------------------------------------------
  C10                         0.01      0.01      7.19      0.01         0.01
  C13                         0.01      0.01     14.06      0.01         0.01
  C18                         0.01      0.01      1.26      0.01         0.01
  C23                         0.01      0.01     15.42      0.01         0.01
  C4                          0.01      0.01     15.44      0.01         0.01
  C7                          0.01      0.01      6.11      0.01         0.01
  C8                          0.01      0.28      0.01      0.28         0.01
  C15                         0.01      0.34      0.01      0.38         0.01
  C21                         0.01      0.43      0.01      0.34         0.01
  

  Analysis begun on:  Mon Sep 20 18:25:09 2021
  Analysis ended on:  Mon Sep 20 18:25:09 2021
  Total elapsed time: < 1 sec