
  EPA STORM WATER MANAGEMENT MODEL - VERSION 5.1 (Build 5.3.0.dev0)
  --------------------------------------------------------------

  
  *********************************************************
  NOTE: The summary statistics displayed in this report are
  based on results found at every computational time step,  
  not just on results from each reporting time step.
  *********************************************************
  
  ****************
  Analysis Options
  ****************
  Flow Units ............... CMS
  Process Models:
    Rainfall/Runoff ........ YES
    RDII ................... NO
    Snowmelt ............... NO
    Groundwater ............ NO
    Flow Routing ........... YES
    Ponding Allowed ........ YES
    Water Quality .......... NO
  Infiltration Method ...... HORTON
  Flow Routing Method ...... DYNWAVE
  Surcharge Method ......... EXTRAN
  Starting Date ............ 08/28/2015 08:00:00
  Ending Date .............. 08/28/2015 15:50:00
  Antecedent Dry Days ...... 0.0
  Report Time Step ......... 00:01:00
  Wet Time Step ............ 00:01:00
  Dry Time Step ............ 00:01:00
  Routing Time Step ........ 5.00 sec
  Variable Time Step ....... YES
  Maximum Trials ........... 8
  Number of Threads ........ 1
  Head Tolerance ........... 0.001500 m
  
  
  **************************        Volume         Depth
  Runoff Quantity Continuity     hectare-m            mm
  **************************     ---------       -------
  Total Precipitation ......         1.392         7.725
  Evaporation Loss .........         0.000         0.000
  Infiltration Loss ........         0.000         0.000
  Surface Runoff ...........         1.369         7.598
  Final Storage ............         0.023         0.128
  Continuity Error (%) .....        -0.006
  
  
  **************************        Volume        Volume
  Flow Routing Continuity        hectare-m      10^6 ltr
  **************************     ---------     ---------
  Dry Weather Inflow .......         0.396         3.955
  Wet Weather Inflow .......         1.369        13.692
  Groundwater Inflow .......         0.000         0.000
  RDII Inflow ..............         0.000         0.000
  External Inflow ..........         0.000         0.000
  External Outflow .........         0.535         5.354
  Flooding Loss ............         0.239         2.395
  Evaporation Loss .........         0.000         0.000
  Exfiltration Loss ........         0.000         0.000
  Initial Stored Volume ....         0.000         0.000
  Final Stored Volume ......         0.767         7.672
  Continuity Error (%) .....        12.613
  
  
  *************************
  Highest Continuity Errors
  *************************
  Node T2 (34.54%)
  Node T3 (25.18%)
  Node T4 (23.72%)
  Node T5 (22.72%)
  Node T6 (17.44%)
  
  
  ***************************
  Time-Step Critical Elements
  ***************************
  None
  
  
  ********************************
  Highest Flow Instability Indexes
  ********************************
  Link C13 (2)
  
  
  *************************
  Routing Time Step Summary
  *************************
  Minimum Time Step           :     0.33 sec
  Average Time Step           :     5.00 sec
  Maximum Time Step           :     5.00 sec
  Percent in Steady State     :     0.00
  Average Iterations per Step :     2.15
  Percent Not Converging      :     0.27
  
  
  ***************************
  Subcatchment Runoff Summary
  ***************************
  
  ------------------------------------------------------------------------------------------------------------------------------
                            Total      Total      Total      Total     Imperv       Perv      Total       Total     Peak  Runoff
                           Precip      Runon       Evap      Infil     Runoff     Runoff     Runoff      Runoff   Runoff   Coeff
  Subcatchment                 mm         mm         mm         mm         mm         mm         mm    10^6 ltr      CMS
  ------------------------------------------------------------------------------------------------------------------------------
  SC01                       7.73       0.00       0.00       0.00       7.64       0.00       7.64        2.52     0.61   0.989
  SC02                       7.73       0.00       0.00       0.00       7.64       0.00       7.64        1.74     0.41   0.988
  SC03                       7.73       0.00       0.00       0.00       7.66       0.00       7.66        1.38     0.35   0.991
  SC04                       7.73       0.00       0.00       0.00       7.54       0.00       7.54        0.52     0.10   0.975
  SC05                       7.73       0.00       0.00       0.00       7.63       0.00       7.63        1.19     0.28   0.988
  SC06                       7.73       0.00       0.00       0.00       7.48       0.00       7.48        2.44     0.46   0.969
  SC07                       7.73       0.00       0.00       0.00       7.54       0.00       7.54        0.36     0.07   0.976
  SC08                       7.73       0.00       0.00       0.00       7.61       0.00       7.61        2.13     0.48   0.985
  SC09                       7.73       0.00       0.00       0.00       7.59       0.00       7.59        0.52     0.11   0.982
  SC010                      7.73       0.00       0.00       0.00       7.61       0.00       7.61        0.89     0.20   0.986
  
  
  ******************
  Node Depth Summary
  ******************
  
  ---------------------------------------------------------------------------------
                                 Average  Maximum  Maximum  Time of Max    Reported
                                   Depth    Depth      HGL   Occurrence   Max Depth
  Node                 Type       Meters   Meters   Meters  days hr:min      Meters
  ---------------------------------------------------------------------------------
  J1                   JUNCTION     0.08     0.18    34.18     0  02:21        0.18
  J3                   JUNCTION     0.09     0.11    18.11     0  04:58        0.11
  CSO7                 JUNCTION     0.19     1.20    35.20     0  02:17        1.20
  J5                   JUNCTION     0.07     0.14    32.14     0  02:26        0.14
  CSO9                 JUNCTION     0.20     1.72    41.72     0  02:23        1.72
  J8                   JUNCTION     0.11     0.26    36.26     0  02:28        0.26
  CSO8                 JUNCTION     0.23     2.00    34.00     0  02:19        2.00
  J10                  JUNCTION     0.10     0.28    29.28     0  02:23        0.28
  J13                  JUNCTION     0.07     0.18    29.18     0  02:21        0.18
  J15                  JUNCTION     0.16     0.32    15.32     0  02:25        0.32
  J16                  JUNCTION     0.07     0.19    30.19     0  02:21        0.19
  CSO10                JUNCTION     0.15     1.00    31.00     0  02:15        1.00
  J12                  JUNCTION     0.46     0.89    26.89     0  07:48        0.89
  J4                   JUNCTION     0.17     1.38    34.38     0  02:17        0.75
  J6                   JUNCTION     0.06     0.07    25.07     0  04:50        0.07
  J2                   JUNCTION     0.07     0.08    25.08     0  03:45        0.08
  J19                  JUNCTION     0.14     0.17     8.17     0  02:34        0.17
  J9                   JUNCTION     0.09     0.11    29.11     0  04:07        0.11
  J14                  JUNCTION     0.08     0.10    20.10     0  07:44        0.10
  J17                  JUNCTION     0.06     0.07    20.07     0  04:25        0.07
  J7                   JUNCTION     0.09     0.22    39.22     0  02:26        0.22
  J11                  JUNCTION     0.10     0.30    31.30     0  02:24        0.30
  J18                  JUNCTION     0.06     0.16    29.16     0  02:26        0.16
  Out_to_WWTP          OUTFALL      0.14     0.17     6.17     0  03:45        0.17
  T5                   STORAGE      3.39     5.00    32.00     0  02:59        5.00
  T4                   STORAGE      3.09     4.68    31.68     0  04:48        4.68
  T6                   STORAGE      3.54     5.00    36.00     0  02:39        5.00
  T3                   STORAGE      3.20     4.89    26.89     0  07:43        4.89
  T2                   STORAGE      2.95     4.31    25.31     0  04:23        4.31
  T1                   STORAGE      3.04     5.00    15.00     0  02:33        5.00
  
  
  *******************
  Node Inflow Summary
  *******************
  
  -------------------------------------------------------------------------------------------------
                                  Maximum  Maximum                  Lateral       Total        Flow
                                  Lateral    Total  Time of Max      Inflow      Inflow     Balance
                                   Inflow   Inflow   Occurrence      Volume      Volume       Error
  Node                 Type           CMS      CMS  days hr:min    10^6 ltr    10^6 ltr     Percent
  -------------------------------------------------------------------------------------------------
  J1                   JUNCTION     0.303    0.303     0  02:21        1.75        1.75       0.027
  J3                   JUNCTION     0.000    0.124     0  04:56           0         2.6       1.101
  CSO7                 JUNCTION     0.082    0.082     0  02:25       0.648       0.648       0.068
  J5                   JUNCTION     0.109    0.180     0  02:25       0.648        1.28       0.124
  CSO9                 JUNCTION     0.120    0.120     0  02:23        0.72        0.72       0.042
  J8                   JUNCTION     0.495    0.614     0  02:27        3.38        4.09       0.125
  CSO8                 JUNCTION     0.490    0.490     0  02:22        2.42        2.42       0.012
  J10                  JUNCTION     0.366    0.841     0  02:21        1.76        4.18       0.070
  J13                  JUNCTION     0.430    0.430     0  02:21         2.2         2.2      -0.188
  J15                  JUNCTION     0.000    0.923     0  02:21           0        7.33       0.920
  J16                  JUNCTION     0.628    0.628     0  02:20        3.08        3.08      -0.001
  CSO10                JUNCTION     0.208    0.208     0  02:22        1.03        1.03       0.021
  J12                  JUNCTION     0.000    0.894     0  02:23           0        6.08      12.911
  J4                   JUNCTION     0.000    0.075     0  02:17           0       0.635       0.523
  J6                   JUNCTION     0.000    0.027     0  04:48           0       0.562       0.687
  J2                   JUNCTION     0.000    0.039     0  02:59           0       0.837       0.604
  J19                  JUNCTION     0.000    0.271     0  02:33           0        5.36       0.190
  J9                   JUNCTION     0.000    0.075     0  02:39           0        1.65       1.043
  J14                  JUNCTION     0.000    0.059     0  07:43           0        1.22       0.359
  J17                  JUNCTION     0.000    0.031     0  04:23           0       0.655       0.937
  J7                   JUNCTION     0.000    0.120     0  02:23           0       0.719       0.438
  J11                  JUNCTION     0.000    0.486     0  02:24           0        2.42       0.254
  J18                  JUNCTION     0.000    0.202     0  02:26           0        1.03       0.091
  Out_to_WWTP          OUTFALL      0.000    0.271     0  02:34           0        5.35       0.000
  T5                   STORAGE      0.000    0.303     0  02:21           0        1.75      29.396
  T4                   STORAGE      0.000    0.180     0  02:26           0        1.28      31.091
  T6                   STORAGE      0.000    0.613     0  02:28           0        4.09      21.131
  T3                   STORAGE      0.000    0.885     0  02:26           0        5.38      33.651
  T2                   STORAGE      0.000    0.430     0  02:21           0        2.21      52.757
  T1                   STORAGE      0.000    0.909     0  02:25           0        7.26       7.013
  
  
  **********************
  Node Surcharge Summary
  **********************
  
  Surcharging occurs when water rises above the top of the highest conduit.
  ---------------------------------------------------------------------
                                               Max. Height   Min. Depth
                                   Hours       Above Crown    Below Rim
  Node                 Type      Surcharged         Meters       Meters
  ---------------------------------------------------------------------
  CSO7                 JUNCTION        0.83          0.945        0.000
  CSO9                 JUNCTION        0.82          1.398        0.284
  CSO8                 JUNCTION        0.74          1.547        0.000
  CSO10                JUNCTION        0.41          0.560        0.000
  J4                   JUNCTION        0.81          1.077        0.623
  
  
  *********************
  Node Flooding Summary
  *********************
  
  Flooding refers to all water that overflows a node, whether it ponds or not.
  --------------------------------------------------------------------------
                                                             Total   Maximum
                                 Maximum   Time of Max       Flood    Ponded
                        Hours       Rate    Occurrence      Volume     Depth
  Node                 Flooded       CMS   days hr:min    10^6 ltr    Meters
  --------------------------------------------------------------------------
  CSO7                    0.47     0.012      0  02:25       0.013     0.000
  CSO8                    0.08     0.004      0  02:22       0.001     0.000
  CSO10                   0.15     0.011      0  02:15       0.002     0.000
  T5                      0.83     0.131      0  02:59       0.119     0.000
  T6                      2.39     0.504      0  02:39       1.226     0.000
  T1                      1.04     0.595      0  02:33       1.034     0.000
  
  
  **********************
  Storage Volume Summary
  **********************
  
  --------------------------------------------------------------------------------------------------
                         Average     Avg  Evap Exfil       Maximum     Max    Time of Max    Maximum
                          Volume    Pcnt  Pcnt  Pcnt        Volume    Pcnt     Occurrence    Outflow
  Storage Unit           1000 m3    Full  Loss  Loss       1000 m3    Full    days hr:min        CMS
  --------------------------------------------------------------------------------------------------
  T5                       0.339      68     0     0         0.500     100       0  02:59      0.039
  T4                       0.309      62     0     0         0.468      94       0  04:48      0.027
  T6                       0.424      71     0     0         0.600     100       0  02:39      0.075
  T3                       1.663      64     0     0         2.542      98       0  07:43      0.162
  T2                       0.590      59     0     0         0.862      86       0  04:23      0.031
  T1                       0.425      61     0     0         0.700     100       0  02:33      0.271
  
  
  ***********************
  Outfall Loading Summary
  ***********************
  
  -----------------------------------------------------------
                         Flow       Avg       Max       Total
                         Freq      Flow      Flow      Volume
  Outfall Node           Pcnt       CMS       CMS    10^6 ltr
  -----------------------------------------------------------
  Out_to_WWTP           99.01     0.192     0.271       5.354
  -----------------------------------------------------------
  System                99.01     0.192     0.271       5.354
  
  
  ********************
  Link Flow Summary
  ********************
  
  -----------------------------------------------------------------------------
                                 Maximum  Time of Max   Maximum    Max/    Max/
                                  |Flow|   Occurrence   |Veloc|    Full    Full
  Link                 Type          CMS  days hr:min     m/sec    Flow   Depth
  -----------------------------------------------------------------------------
  C1                   CONDUIT     0.039     0  03:45      1.07    0.01    0.09
  C6                   CONDUIT     0.071     0  02:26      1.29    1.12    0.74
  C2                   CONDUIT     0.027     0  04:50      0.99    0.03    0.15
  C9                   CONDUIT     0.119     0  02:26      1.29    0.41    0.48
  C16                  CONDUIT     0.485     0  02:24      1.76    0.05    0.14
  C3                   CONDUIT     0.059     0  07:44      1.31    0.02    0.11
  C19                  CONDUIT     0.031     0  04:25      0.66    0.01    0.19
  C11                  CONDUIT     0.124     0  04:58      1.44    0.01    0.10
  C20                  CONDUIT     0.628     0  02:21      2.74    0.02    0.13
  C22                  CONDUIT     0.202     0  02:26      1.61    0.09    0.30
  C12                  CONDUIT     0.075     0  04:07      0.65    0.01    0.25
  C17                  CONDUIT     0.838     0  02:23      2.96    0.04    0.24
  C10                  CONDUIT     0.613     0  02:28      1.66    0.06    0.59
  C13                  CONDUIT     0.885     0  02:26      1.45    0.05    0.72
  C18                  CONDUIT     0.430     0  02:21      1.72    0.02    0.54
  C23                  CONDUIT     0.909     0  02:25      1.24    0.10    0.61
  C4                   CONDUIT     0.303     0  02:21      1.98    0.07    0.59
  C7                   CONDUIT     0.180     0  02:26      1.43    0.04    0.57
  C14                  CONDUIT     0.271     0  02:34      2.08    0.02    0.09
  C5                   CONDUIT     0.075     0  02:17      1.47    1.29    1.00
  C8                   CONDUIT     0.120     0  02:23      1.67    1.51    0.85
  C15                  CONDUIT     0.486     0  02:24      3.42    1.55    0.83
  C21                  CONDUIT     0.202     0  02:26      1.83    1.16    0.69
  V4                   ORIFICE     0.027     0  04:48                      0.35
  V5                   ORIFICE     0.039     0  02:59                      1.00
  V1                   ORIFICE     0.271     0  02:33                      1.00
  V6                   ORIFICE     0.075     0  02:39                      0.43
  V3                   ORIFICE     0.059     0  07:43                      0.65
  V2                   ORIFICE     0.031     0  04:23                      0.24
  
  
  ***************************
  Flow Classification Summary
  ***************************
  
  -------------------------------------------------------------------------------------
                      Adjusted    ---------- Fraction of Time in Flow Class ---------- 
                       /Actual         Up    Down  Sub   Sup   Up    Down  Norm  Inlet 
  Conduit               Length    Dry  Dry   Dry   Crit  Crit  Crit  Crit  Ltd   Ctrl  
  -------------------------------------------------------------------------------------
  C1                      1.00   0.00  0.00  0.00  0.00  1.00  0.00  0.00  0.93  0.00
  C6                      1.00   0.00  0.00  0.00  0.13  0.87  0.00  0.00  0.00  0.00
  C2                      1.00   0.00  0.00  0.00  0.04  0.96  0.00  0.00  0.97  0.00
  C9                      1.00   0.00  0.00  0.00  1.00  0.00  0.00  0.00  1.00  0.00
  C16                     1.00   0.00  0.00  0.00  0.58  0.42  0.00  0.00  0.47  0.00
  C3                      1.00   0.00  0.00  0.00  0.04  0.95  0.00  0.00  0.96  0.00
  C19                     1.00   0.00  0.00  0.00  1.00  0.00  0.00  0.00  1.00  0.00
  C11                     1.00   0.00  0.00  0.00  0.34  0.66  0.00  0.00  1.00  0.00
  C20                     1.00   0.00  0.00  0.00  0.55  0.45  0.00  0.00  0.98  0.00
  C22                     1.00   0.00  0.00  0.00  0.75  0.25  0.00  0.00  1.00  0.00
  C12                     1.00   0.00  0.00  0.00  1.00  0.00  0.00  0.00  1.00  0.00
  C17                     1.00   0.00  0.00  0.00  0.58  0.42  0.00  0.00  0.97  0.00
  C10                     1.00   0.00  0.00  0.00  0.96  0.04  0.00  0.00  0.97  0.00
  C13                     1.00   0.00  0.00  0.00  0.88  0.12  0.00  0.00  0.31  0.00
  C18                     1.00   0.00  0.00  0.00  0.94  0.06  0.00  0.00  0.97  0.00
  C23                     1.00   0.00  0.00  0.00  0.88  0.12  0.00  0.00  0.94  0.00
  C4                      1.00   0.00  0.00  0.00  0.96  0.04  0.00  0.00  0.98  0.00
  C7                      1.00   0.00  0.00  0.00  0.95  0.05  0.00  0.00  0.97  0.00
  C14                     1.00   0.00  0.00  0.00  0.00  0.99  0.00  0.00  0.32  0.00
  C5                      1.00   0.00  0.00  0.00  0.89  0.11  0.00  0.00  0.87  0.00
  C8                      1.00   0.00  0.00  0.00  0.14  0.86  0.00  0.00  0.00  0.00
  C15                     1.00   0.00  0.00  0.00  0.00  1.00  0.00  0.00  0.00  0.00
  C21                     1.00   0.00  0.00  0.00  0.01  0.99  0.00  0.00  0.00  0.00
  
  
  *************************
  Conduit Surcharge Summary
  *************************
  
  ----------------------------------------------------------------------------
                                                           Hours        Hours 
                         --------- Hours Full --------   Above Full   Capacity
  Conduit                Both Ends  Upstream  Dnstream   Normal Flow   Limited
  ----------------------------------------------------------------------------
  C6                          0.01      0.81      0.01      0.63         0.01
  C10                         0.01      0.01      5.78      0.01         0.01
  C13                         0.01      0.01      5.40      0.01         0.01
  C18                         0.01      0.01      5.45      0.01         0.01
  C23                         0.01      0.01      5.84      0.01         0.01
  C4                          0.01      0.01      5.97      0.01         0.01
  C7                          0.01      0.01      5.72      0.01         0.01
  C5                          0.82      0.83      0.92      0.87         0.79
  C8                          0.01      0.82      0.01      0.82         0.01
  C15                         0.01      0.74      0.01      0.80         0.01
  C21                         0.01      0.41      0.01      0.37         0.01
  

  Analysis begun on:  Fri Sep  3 16:37:59 2021
  Analysis ended on:  Fri Sep  3 16:37:59 2021
  Total elapsed time: < 1 sec