
  EPA STORM WATER MANAGEMENT MODEL - VERSION 5.1 (Build 5.3.0.dev0)
  --------------------------------------------------------------

  
  *********************************************************
  NOTE: The summary statistics displayed in this report are
  based on results found at every computational time step,  
  not just on results from each reporting time step.
  *********************************************************
  
  ****************
  Analysis Options
  ****************
  Flow Units ............... CMS
  Process Models:
    Rainfall/Runoff ........ YES
    RDII ................... NO
    Snowmelt ............... NO
    Groundwater ............ NO
    Flow Routing ........... YES
    Ponding Allowed ........ YES
    Water Quality .......... NO
  Infiltration Method ...... HORTON
  Flow Routing Method ...... DYNWAVE
  Surcharge Method ......... EXTRAN
  Starting Date ............ 08/28/2015 08:00:00
  Ending Date .............. 08/28/2015 15:50:00
  Antecedent Dry Days ...... 0.0
  Report Time Step ......... 00:01:00
  Wet Time Step ............ 00:01:00
  Dry Time Step ............ 00:01:00
  Routing Time Step ........ 5.00 sec
  Variable Time Step ....... YES
  Maximum Trials ........... 8
  Number of Threads ........ 1
  Head Tolerance ........... 0.001500 m
  
  
  **************************        Volume         Depth
  Runoff Quantity Continuity     hectare-m            mm
  **************************     ---------       -------
  Total Precipitation ......         2.110        11.708
  Evaporation Loss .........         0.000         0.000
  Infiltration Loss ........         0.000         0.000
  Surface Runoff ...........         2.086        11.576
  Final Storage ............         0.024         0.133
  Continuity Error (%) .....        -0.007
  
  
  **************************        Volume        Volume
  Flow Routing Continuity        hectare-m      10^6 ltr
  **************************     ---------     ---------
  Dry Weather Inflow .......         0.396         3.955
  Wet Weather Inflow .......         2.086        20.859
  Groundwater Inflow .......         0.000         0.000
  RDII Inflow ..............         0.000         0.000
  External Inflow ..........         0.000         0.000
  External Outflow .........         0.552         5.517
  Flooding Loss ............         0.884         8.841
  Evaporation Loss .........         0.000         0.000
  Exfiltration Loss ........         0.000         0.000
  Initial Stored Volume ....         0.000         0.000
  Final Stored Volume ......         0.805         8.051
  Continuity Error (%) .....         9.691
  
  
  *************************
  Highest Continuity Errors
  *************************
  Node T2 (28.00%)
  Node T3 (21.49%)
  Node T4 (19.81%)
  Node T5 (16.87%)
  Node T6 (13.00%)
  
  
  ***************************
  Time-Step Critical Elements
  ***************************
  None
  
  
  ********************************
  Highest Flow Instability Indexes
  ********************************
  All links are stable.
  
  
  *************************
  Routing Time Step Summary
  *************************
  Minimum Time Step           :     4.50 sec
  Average Time Step           :     5.00 sec
  Maximum Time Step           :     5.00 sec
  Percent in Steady State     :     0.00
  Average Iterations per Step :     2.19
  Percent Not Converging      :     0.64
  
  
  ***************************
  Subcatchment Runoff Summary
  ***************************
  
  ------------------------------------------------------------------------------------------------------------------------------
                            Total      Total      Total      Total     Imperv       Perv      Total       Total     Peak  Runoff
                           Precip      Runon       Evap      Infil     Runoff     Runoff     Runoff      Runoff   Runoff   Coeff
  Subcatchment                 mm         mm         mm         mm         mm         mm         mm    10^6 ltr      CMS
  ------------------------------------------------------------------------------------------------------------------------------
  SC01                      11.71       0.00       0.00       0.00      11.62       0.00      11.62        3.84     1.02   0.993
  SC02                      11.71       0.00       0.00       0.00      11.62       0.00      11.62        2.64     0.70   0.992
  SC03                      11.71       0.00       0.00       0.00      11.64       0.00      11.64        2.10     0.59   0.994
  SC04                      11.71       0.00       0.00       0.00      11.51       0.00      11.51        0.79     0.18   0.983
  SC05                      11.71       0.00       0.00       0.00      11.62       0.00      11.62        1.81     0.48   0.992
  SC06                      11.71       0.00       0.00       0.00      11.45       0.00      11.45        3.73     0.83   0.978
  SC07                      11.71       0.00       0.00       0.00      11.51       0.00      11.51        0.55     0.13   0.983
  SC08                      11.71       0.00       0.00       0.00      11.59       0.00      11.59        3.25     0.82   0.990
  SC09                      11.71       0.00       0.00       0.00      11.56       0.00      11.56        0.80     0.19   0.988
  SC010                     11.71       0.00       0.00       0.00      11.59       0.00      11.59        1.36     0.35   0.990
  
  
  ******************
  Node Depth Summary
  ******************
  
  ---------------------------------------------------------------------------------
                                 Average  Maximum  Maximum  Time of Max    Reported
                                   Depth    Depth      HGL   Occurrence   Max Depth
  Node                 Type       Meters   Meters   Meters  days hr:min      Meters
  ---------------------------------------------------------------------------------
  J1                   JUNCTION     0.08     0.23    34.23     0  02:41        0.23
  J3                   JUNCTION     0.09     0.11    18.11     0  04:01        0.11
  CSO7                 JUNCTION     0.24     1.20    35.20     0  02:15        1.20
  J5                   JUNCTION     0.07     0.17    32.17     0  02:44        0.17
  CSO9                 JUNCTION     0.31     2.00    42.00     0  02:25        2.00
  J8                   JUNCTION     0.13     0.32    36.32     0  02:46        0.32
  CSO8                 JUNCTION     0.33     2.00    34.00     0  02:23        2.00
  J10                  JUNCTION     0.11     0.31    29.31     0  02:40        0.31
  J13                  JUNCTION     0.07     0.22    29.22     0  02:41        0.22
  J15                  JUNCTION     0.17     0.39    15.39     0  02:44        0.39
  J16                  JUNCTION     0.08     0.25    30.25     0  02:41        0.25
  CSO10                JUNCTION     0.20     1.00    31.00     0  02:22        1.00
  J12                  JUNCTION     0.68     1.03    27.03     0  03:28        1.03
  J4                   JUNCTION     0.19     1.22    34.22     0  02:15        0.90
  J6                   JUNCTION     0.06     0.07    25.07     0  03:52        0.07
  J2                   JUNCTION     0.07     0.08    25.08     0  03:28        0.08
  J19                  JUNCTION     0.14     0.17     8.17     0  02:29        0.17
  J9                   JUNCTION     0.09     0.11    29.11     0  04:16        0.11
  J14                  JUNCTION     0.09     0.10    20.10     0  05:49        0.10
  J17                  JUNCTION     0.06     0.08    20.08     0  03:53        0.08
  J7                   JUNCTION     0.10     0.23    39.23     0  03:04        0.23
  J11                  JUNCTION     0.11     0.30    31.30     0  03:04        0.30
  J18                  JUNCTION     0.06     0.16    29.16     0  02:59        0.16
  Out_to_WWTP          OUTFALL      0.14     0.17     6.17     0  02:29        0.17
  T5                   STORAGE      3.48     5.00    32.00     0  02:40        5.00
  T4                   STORAGE      3.41     5.00    32.00     0  03:03        5.00
  T6                   STORAGE      3.61     5.00    36.00     0  02:32        5.00
  T3                   STORAGE      3.48     5.00    27.00     0  03:19        5.00
  T2                   STORAGE      3.47     5.00    26.00     0  02:53        5.00
  T1                   STORAGE      3.19     5.00    15.00     0  02:28        5.00
  
  
  *******************
  Node Inflow Summary
  *******************
  
  -------------------------------------------------------------------------------------------------
                                  Maximum  Maximum                  Lateral       Total        Flow
                                  Lateral    Total  Time of Max      Inflow      Inflow     Balance
                                   Inflow   Inflow   Occurrence      Volume      Volume       Error
  Node                 Type           CMS      CMS  days hr:min    10^6 ltr    10^6 ltr     Percent
  -------------------------------------------------------------------------------------------------
  J1                   JUNCTION     0.497    0.497     0  02:41        2.37        2.37       0.013
  J3                   JUNCTION     0.000    0.127     0  03:36           0         2.7       1.075
  CSO7                 JUNCTION     0.137    0.137     0  02:44       0.837       0.837       0.055
  J5                   JUNCTION     0.188    0.260     0  02:44       0.922        1.63       0.094
  CSO9                 JUNCTION     0.202    0.202     0  02:42       0.994       0.994       0.049
  J8                   JUNCTION     0.860    0.987     0  02:45        4.67        5.55       0.089
  CSO8                 JUNCTION     0.829    0.829     0  02:42        3.54        3.54       0.014
  J10                  JUNCTION     0.600    1.086     0  02:39        2.48        5.52      -0.048
  J13                  JUNCTION     0.714    0.714     0  02:41        3.11        3.11      -0.143
  J15                  JUNCTION     0.000    1.378     0  02:41           0        9.06       0.756
  J16                  JUNCTION     1.043    1.043     0  02:40        4.39        4.39      -0.013
  CSO10                JUNCTION     0.351    0.351     0  02:41         1.5         1.5       0.024
  J12                  JUNCTION     0.000    1.157     0  02:40           0        7.24      12.736
  J4                   JUNCTION     0.000    0.072     0  02:44           0       0.714       0.469
  J6                   JUNCTION     0.000    0.028     0  03:03           0        0.59       0.672
  J2                   JUNCTION     0.000    0.039     0  02:40           0       0.851       0.596
  J19                  JUNCTION     0.000    0.271     0  02:28           0        5.53       0.188
  J9                   JUNCTION     0.000    0.075     0  02:32           0        1.67       1.035
  J14                  JUNCTION     0.000    0.060     0  03:19           0        1.28       0.345
  J17                  JUNCTION     0.000    0.033     0  02:53           0        0.71       0.924
  J7                   JUNCTION     0.000    0.127     0  03:04           0       0.888       0.350
  J11                  JUNCTION     0.000    0.486     0  03:03           0        3.05       0.210
  J18                  JUNCTION     0.000    0.202     0  02:59           0        1.29       0.069
  Out_to_WWTP          OUTFALL      0.000    0.271     0  02:30           0        5.52       0.000
  T5                   STORAGE      0.000    0.497     0  02:41           0        2.37      20.299
  T4                   STORAGE      0.000    0.260     0  02:44           0        1.63      24.698
  T6                   STORAGE      0.000    0.986     0  02:46           0        5.55      14.939
  T3                   STORAGE      0.000    1.147     0  02:43           0        6.42      27.374
  T2                   STORAGE      0.000    0.713     0  02:41           0        3.11      38.894
  T1                   STORAGE      0.000    1.358     0  02:44           0        8.99       5.896
  
  
  **********************
  Node Surcharge Summary
  **********************
  
  Surcharging occurs when water rises above the top of the highest conduit.
  ---------------------------------------------------------------------
                                               Max. Height   Min. Depth
                                   Hours       Above Crown    Below Rim
  Node                 Type      Surcharged         Meters       Meters
  ---------------------------------------------------------------------
  CSO7                 JUNCTION        1.11          0.945        0.000
  CSO9                 JUNCTION        1.13          1.682        0.000
  CSO8                 JUNCTION        1.07          1.547        0.000
  CSO10                JUNCTION        0.81          0.560        0.000
  J4                   JUNCTION        1.07          0.919        0.781
  
  
  *********************
  Node Flooding Summary
  *********************
  
  Flooding refers to all water that overflows a node, whether it ponds or not.
  --------------------------------------------------------------------------
                                                             Total   Maximum
                                 Maximum   Time of Max       Flood    Ponded
                        Hours       Rate    Occurrence      Volume     Depth
  Node                 Flooded       CMS   days hr:min    10^6 ltr    Meters
  --------------------------------------------------------------------------
  CSO7                    0.93     0.065      0  02:44       0.122     0.000
  CSO9                    0.65     0.075      0  02:42       0.106     0.000
  CSO8                    0.68     0.343      0  02:42       0.489     0.000
  CSO10                   0.69     0.149      0  02:41       0.213     0.000
  T5                      1.30     0.458      0  02:41       0.720     0.000
  T4                      1.89     0.187      0  03:03       0.276     0.000
  T6                      2.64     0.911      0  02:46       2.648     0.000
  T3                      3.97     0.646      0  03:19       1.105     0.000
  T2                      1.51     0.561      0  02:53       0.615     0.000
  T1                      1.32     1.087      0  02:44       2.548     0.000
  
  
  **********************
  Storage Volume Summary
  **********************
  
  --------------------------------------------------------------------------------------------------
                         Average     Avg  Evap Exfil       Maximum     Max    Time of Max    Maximum
                          Volume    Pcnt  Pcnt  Pcnt        Volume    Pcnt     Occurrence    Outflow
  Storage Unit           1000 m3    Full  Loss  Loss       1000 m3    Full    days hr:min        CMS
  --------------------------------------------------------------------------------------------------
  T5                       0.348      70     0     0         0.500     100       0  02:40      0.039
  T4                       0.341      68     0     0         0.500     100       0  03:03      0.028
  T6                       0.433      72     0     0         0.600     100       0  02:32      0.075
  T3                       1.810      70     0     0         2.600     100       0  03:19      0.348
  T2                       0.695      69     0     0         1.000     100       0  02:53      0.033
  T1                       0.447      64     0     0         0.700     100       0  02:28      0.271
  
  
  ***********************
  Outfall Loading Summary
  ***********************
  
  -----------------------------------------------------------
                         Flow       Avg       Max       Total
                         Freq      Flow      Flow      Volume
  Outfall Node           Pcnt       CMS       CMS    10^6 ltr
  -----------------------------------------------------------
  Out_to_WWTP           99.01     0.198     0.271       5.517
  -----------------------------------------------------------
  System                99.01     0.198     0.271       5.517
  
  
  ********************
  Link Flow Summary
  ********************
  
  -----------------------------------------------------------------------------
                                 Maximum  Time of Max   Maximum    Max/    Max/
                                  |Flow|   Occurrence   |Veloc|    Full    Full
  Link                 Type          CMS  days hr:min     m/sec    Flow   Depth
  -----------------------------------------------------------------------------
  C1                   CONDUIT     0.039     0  03:28      1.09    0.01    0.10
  C6                   CONDUIT     0.072     0  02:44      1.29    1.15    0.79
  C2                   CONDUIT     0.028     0  03:51      1.01    0.03    0.16
  C9                   CONDUIT     0.127     0  03:04      1.28    0.43    0.55
  C16                  CONDUIT     0.488     0  02:32      1.79    0.05    0.15
  C3                   CONDUIT     0.060     0  05:49      1.31    0.02    0.11
  C19                  CONDUIT     0.033     0  03:53      0.69    0.01    0.23
  C11                  CONDUIT     0.127     0  04:01      1.44    0.01    0.12
  C20                  CONDUIT     1.042     0  02:41      3.27    0.03    0.16
  C22                  CONDUIT     0.202     0  02:59      1.60    0.09    0.35
  C12                  CONDUIT     0.075     0  04:16      0.59    0.01    0.29
  C17                  CONDUIT     1.082     0  02:40      3.17    0.05    0.30
  C10                  CONDUIT     0.986     0  02:46      1.66    0.10    0.61
  C13                  CONDUIT     1.147     0  02:43      1.45    0.07    0.76
  C18                  CONDUIT     0.713     0  02:41      1.72    0.03    0.56
  C23                  CONDUIT     1.358     0  02:44      1.24    0.15    0.63
  C4                   CONDUIT     0.497     0  02:41      1.98    0.12    0.62
  C7                   CONDUIT     0.260     0  02:44      1.43    0.06    0.59
  C14                  CONDUIT     0.271     0  02:30      2.08    0.02    0.09
  C5                   CONDUIT     0.072     0  02:44      1.41    1.23    1.00
  C8                   CONDUIT     0.127     0  03:04      1.75    1.60    0.86
  C15                  CONDUIT     0.486     0  03:03      3.42    1.55    0.83
  C21                  CONDUIT     0.202     0  02:59      1.82    1.16    0.69
  V4                   ORIFICE     0.028     0  03:03                      0.35
  V5                   ORIFICE     0.039     0  02:40                      1.00
  V1                   ORIFICE     0.271     0  02:28                      1.00
  V6                   ORIFICE     0.075     0  02:32                      0.43
  V3                   ORIFICE     0.060     0  03:19                      0.65
  V2                   ORIFICE     0.033     0  02:53                      0.24
  
  
  ***************************
  Flow Classification Summary
  ***************************
  
  -------------------------------------------------------------------------------------
                      Adjusted    ---------- Fraction of Time in Flow Class ---------- 
                       /Actual         Up    Down  Sub   Sup   Up    Down  Norm  Inlet 
  Conduit               Length    Dry  Dry   Dry   Crit  Crit  Crit  Crit  Ltd   Ctrl  
  -------------------------------------------------------------------------------------
  C1                      1.00   0.00  0.00  0.00  0.00  1.00  0.00  0.00  0.93  0.00
  C6                      1.00   0.00  0.00  0.00  0.17  0.83  0.00  0.00  0.00  0.00
  C2                      1.00   0.00  0.00  0.00  0.06  0.93  0.00  0.00  0.97  0.00
  C9                      1.00   0.00  0.00  0.00  1.00  0.00  0.00  0.00  1.00  0.00
  C16                     1.00   0.00  0.00  0.00  0.55  0.45  0.00  0.00  0.43  0.00
  C3                      1.00   0.00  0.00  0.00  0.04  0.95  0.00  0.00  0.94  0.00
  C19                     1.00   0.00  0.00  0.00  1.00  0.00  0.00  0.00  1.00  0.00
  C11                     1.00   0.00  0.00  0.00  0.37  0.63  0.00  0.00  1.00  0.00
  C20                     1.00   0.00  0.00  0.00  0.53  0.47  0.00  0.00  0.98  0.00
  C22                     1.00   0.00  0.00  0.00  0.75  0.25  0.00  0.00  1.00  0.00
  C12                     1.00   0.00  0.00  0.00  1.00  0.00  0.00  0.00  1.00  0.00
  C17                     1.00   0.00  0.00  0.00  0.62  0.38  0.00  0.00  0.94  0.00
  C10                     1.00   0.00  0.00  0.00  0.96  0.04  0.00  0.00  0.97  0.00
  C13                     1.00   0.00  0.00  0.00  0.85  0.15  0.00  0.00  0.27  0.00
  C18                     1.00   0.00  0.00  0.00  0.94  0.06  0.00  0.00  0.97  0.00
  C23                     1.00   0.00  0.00  0.00  0.88  0.12  0.00  0.00  0.94  0.00
  C4                      1.00   0.00  0.00  0.00  0.96  0.04  0.00  0.00  0.98  0.00
  C7                      1.00   0.00  0.00  0.00  0.95  0.05  0.00  0.00  0.97  0.00
  C14                     1.00   0.00  0.00  0.00  0.00  0.99  0.00  0.00  0.29  0.00
  C5                      1.00   0.00  0.00  0.00  0.90  0.10  0.00  0.00  0.84  0.00
  C8                      1.00   0.00  0.00  0.00  0.18  0.82  0.00  0.00  0.00  0.00
  C15                     1.00   0.00  0.00  0.00  0.00  1.00  0.00  0.00  0.00  0.00
  C21                     1.00   0.00  0.00  0.00  0.00  1.00  0.00  0.00  0.00  0.00
  
  
  *************************
  Conduit Surcharge Summary
  *************************
  
  ----------------------------------------------------------------------------
                                                           Hours        Hours 
                         --------- Hours Full --------   Above Full   Capacity
  Conduit                Both Ends  Upstream  Dnstream   Normal Flow   Limited
  ----------------------------------------------------------------------------
  C6                          0.01      1.07      0.01      0.97         0.01
  C10                         0.01      0.01      5.90      0.01         0.01
  C13                         0.01      0.01      5.48      0.01         0.01
  C18                         0.01      0.01      5.53      0.01         0.01
  C23                         0.01      0.01      5.97      0.01         0.01
  C4                          0.01      0.01      6.09      0.01         0.01
  C7                          0.01      0.01      5.84      0.01         0.01
  C5                          1.11      1.11      1.22      1.18         1.08
  C8                          0.01      1.13      0.01      1.15         0.01
  C15                         0.01      1.07      0.01      1.16         0.01
  C21                         0.01      0.81      0.01      0.82         0.01
  

  Analysis begun on:  Fri Sep  3 16:38:19 2021
  Analysis ended on:  Fri Sep  3 16:38:19 2021
  Total elapsed time: < 1 sec