
  EPA STORM WATER MANAGEMENT MODEL - VERSION 5.1 (Build 5.3.0.dev0)
  --------------------------------------------------------------

  
  *********************************************************
  NOTE: The summary statistics displayed in this report are
  based on results found at every computational time step,  
  not just on results from each reporting time step.
  *********************************************************
  
  ****************
  Analysis Options
  ****************
  Flow Units ............... CMS
  Process Models:
    Rainfall/Runoff ........ YES
    RDII ................... NO
    Snowmelt ............... NO
    Groundwater ............ NO
    Flow Routing ........... YES
    Ponding Allowed ........ YES
    Water Quality .......... NO
  Infiltration Method ...... HORTON
  Flow Routing Method ...... DYNWAVE
  Surcharge Method ......... EXTRAN
  Starting Date ............ 08/28/2015 08:00:00
  Ending Date .............. 08/28/2015 15:50:00
  Antecedent Dry Days ...... 0.0
  Report Time Step ......... 00:01:00
  Wet Time Step ............ 00:01:00
  Dry Time Step ............ 00:01:00
  Routing Time Step ........ 5.00 sec
  Variable Time Step ....... YES
  Maximum Trials ........... 8
  Number of Threads ........ 1
  Head Tolerance ........... 0.001500 m
  
  
  **************************        Volume         Depth
  Runoff Quantity Continuity     hectare-m            mm
  **************************     ---------       -------
  Total Precipitation ......         1.468         8.148
  Evaporation Loss .........         0.000         0.000
  Infiltration Loss ........         0.000         0.000
  Surface Runoff ...........         1.445         8.017
  Final Storage ............         0.024         0.132
  Continuity Error (%) .....        -0.008
  
  
  **************************        Volume        Volume
  Flow Routing Continuity        hectare-m      10^6 ltr
  **************************     ---------     ---------
  Dry Weather Inflow .......         0.396         3.955
  Wet Weather Inflow .......         1.445        14.446
  Groundwater Inflow .......         0.000         0.000
  RDII Inflow ..............         0.000         0.000
  External Inflow ..........         0.000         0.000
  External Outflow .........         0.540         5.395
  Flooding Loss ............         0.277         2.766
  Evaporation Loss .........         0.000         0.000
  Exfiltration Loss ........         0.000         0.000
  Initial Stored Volume ....         0.000         0.000
  Final Stored Volume ......         0.791         7.908
  Continuity Error (%) .....        12.673
  
  
  *************************
  Highest Continuity Errors
  *************************
  Node T2 (34.86%)
  Node T3 (24.49%)
  Node T4 (24.22%)
  Node T5 (22.10%)
  Node T6 (16.97%)
  
  
  ***************************
  Time-Step Critical Elements
  ***************************
  None
  
  
  ********************************
  Highest Flow Instability Indexes
  ********************************
  Link C13 (2)
  
  
  *************************
  Routing Time Step Summary
  *************************
  Minimum Time Step           :     4.50 sec
  Average Time Step           :     5.00 sec
  Maximum Time Step           :     5.00 sec
  Percent in Steady State     :     0.00
  Average Iterations per Step :     2.18
  Percent Not Converging      :     0.67
  
  
  ***************************
  Subcatchment Runoff Summary
  ***************************
  
  ------------------------------------------------------------------------------------------------------------------------------
                            Total      Total      Total      Total     Imperv       Perv      Total       Total     Peak  Runoff
                           Precip      Runon       Evap      Infil     Runoff     Runoff     Runoff      Runoff   Runoff   Coeff
  Subcatchment                 mm         mm         mm         mm         mm         mm         mm    10^6 ltr      CMS
  ------------------------------------------------------------------------------------------------------------------------------
  SC01                       8.15       0.00       0.00       0.00       8.06       0.00       8.06        2.66     0.67   0.989
  SC02                       8.15       0.00       0.00       0.00       8.06       0.00       8.06        1.83     0.45   0.989
  SC03                       8.15       0.00       0.00       0.00       8.08       0.00       8.08        1.45     0.38   0.992
  SC04                       8.15       0.00       0.00       0.00       7.95       0.00       7.95        0.55     0.12   0.976
  SC05                       8.15       0.00       0.00       0.00       8.06       0.00       8.06        1.26     0.31   0.989
  SC06                       8.15       0.00       0.00       0.00       7.90       0.00       7.90        2.57     0.55   0.969
  SC07                       8.15       0.00       0.00       0.00       7.95       0.00       7.95        0.38     0.08   0.976
  SC08                       8.15       0.00       0.00       0.00       8.03       0.00       8.03        2.25     0.54   0.986
  SC09                       8.15       0.00       0.00       0.00       8.00       0.00       8.00        0.55     0.13   0.982
  SC010                      8.15       0.00       0.00       0.00       8.03       0.00       8.03        0.94     0.23   0.986
  
  
  ******************
  Node Depth Summary
  ******************
  
  ---------------------------------------------------------------------------------
                                 Average  Maximum  Maximum  Time of Max    Reported
                                   Depth    Depth      HGL   Occurrence   Max Depth
  Node                 Type       Meters   Meters   Meters  days hr:min      Meters
  ---------------------------------------------------------------------------------
  J1                   JUNCTION     0.08     0.19    34.19     0  03:01        0.19
  J3                   JUNCTION     0.09     0.11    18.11     0  04:59        0.11
  CSO7                 JUNCTION     0.17     1.20    35.20     0  02:41        1.20
  J5                   JUNCTION     0.07     0.15    32.15     0  03:01        0.15
  CSO9                 JUNCTION     0.19     2.00    42.00     0  02:57        2.00
  J8                   JUNCTION     0.12     0.27    36.27     0  03:01        0.27
  CSO8                 JUNCTION     0.22     2.00    34.00     0  02:55        2.00
  J10                  JUNCTION     0.10     0.28    29.28     0  03:01        0.28
  J13                  JUNCTION     0.07     0.18    29.18     0  03:01        0.18
  J15                  JUNCTION     0.16     0.33    15.33     0  03:02        0.33
  J16                  JUNCTION     0.07     0.20    30.20     0  03:01        0.20
  CSO10                JUNCTION     0.15     1.00    31.00     0  02:54        1.00
  J12                  JUNCTION     0.51     0.98    26.98     0  07:46        0.98
  J4                   JUNCTION     0.16     1.13    34.13     0  02:41        0.76
  J6                   JUNCTION     0.06     0.07    25.07     0  04:55        0.07
  J2                   JUNCTION     0.07     0.08    25.08     0  03:50        0.08
  J19                  JUNCTION     0.14     0.17     8.17     0  02:47        0.17
  J9                   JUNCTION     0.09     0.11    29.11     0  04:21        0.11
  J14                  JUNCTION     0.09     0.10    20.10     0  07:43        0.10
  J17                  JUNCTION     0.06     0.07    20.07     0  04:30        0.07
  J7                   JUNCTION     0.09     0.23    39.23     0  03:02        0.23
  J11                  JUNCTION     0.11     0.30    31.30     0  02:59        0.30
  J18                  JUNCTION     0.06     0.16    29.16     0  03:02        0.16
  Out_to_WWTP          OUTFALL      0.14     0.17     6.17     0  03:55        0.17
  T5                   STORAGE      3.35     5.00    32.00     0  03:03        5.00
  T4                   STORAGE      3.21     4.95    31.95     0  04:53        4.95
  T6                   STORAGE      3.52     5.00    36.00     0  02:49        5.00
  T3                   STORAGE      3.20     4.98    26.98     0  07:50        4.98
  T2                   STORAGE      3.05     4.55    25.55     0  04:28        4.55
  T1                   STORAGE      3.07     5.00    15.00     0  02:45        5.00
  
  
  *******************
  Node Inflow Summary
  *******************
  
  -------------------------------------------------------------------------------------------------
                                  Maximum  Maximum                  Lateral       Total        Flow
                                  Lateral    Total  Time of Max      Inflow      Inflow     Balance
                                   Inflow   Inflow   Occurrence      Volume      Volume       Error
  Node                 Type           CMS      CMS  days hr:min    10^6 ltr    10^6 ltr     Percent
  -------------------------------------------------------------------------------------------------
  J1                   JUNCTION     0.334    0.334     0  03:01        1.82        1.82       0.021
  J3                   JUNCTION     0.000    0.125     0  04:58           0        2.62       1.099
  CSO7                 JUNCTION     0.095    0.095     0  03:01       0.668       0.668       0.066
  J5                   JUNCTION     0.127    0.198     0  03:01       0.676        1.33       0.122
  CSO9                 JUNCTION     0.136    0.136     0  03:01       0.748       0.748       0.069
  J8                   JUNCTION     0.586    0.711     0  03:01        3.51        4.26       0.120
  CSO8                 JUNCTION     0.547    0.547     0  03:01        2.54        2.54       0.023
  J10                  JUNCTION     0.394    0.882     0  03:01        1.84        4.36       0.047
  J13                  JUNCTION     0.473    0.473     0  03:01         2.3         2.3      -0.175
  J15                  JUNCTION     0.000    1.017     0  03:01           0        7.54       0.905
  J16                  JUNCTION     0.688    0.688     0  03:01        3.21        3.21      -0.006
  CSO10                JUNCTION     0.232    0.232     0  03:01        1.08        1.08       0.034
  J12                  JUNCTION     0.000    0.945     0  03:01           0        6.41      13.838
  J4                   JUNCTION     0.000    0.071     0  03:01           0       0.652       0.524
  J6                   JUNCTION     0.000    0.028     0  04:53           0       0.565       0.701
  J2                   JUNCTION     0.000    0.039     0  03:03           0       0.833       0.610
  J19                  JUNCTION     0.000    0.271     0  02:45           0        5.41       0.191
  J9                   JUNCTION     0.000    0.075     0  02:49           0        1.64       1.038
  J14                  JUNCTION     0.000    0.060     0  07:50           0        1.24       0.355
  J17                  JUNCTION     0.000    0.032     0  04:28           0       0.664       0.939
  J7                   JUNCTION     0.000    0.127     0  03:02           0       0.747       0.421
  J11                  JUNCTION     0.000    0.486     0  02:59           0        2.53       0.246
  J18                  JUNCTION     0.000    0.202     0  03:02           0        1.08       0.087
  Out_to_WWTP          OUTFALL      0.000    0.271     0  02:47           0         5.4       0.000
  T5                   STORAGE      0.000    0.330     0  03:01           0        1.82      28.366
  T4                   STORAGE      0.000    0.196     0  03:01           0        1.32      31.965
  T6                   STORAGE      0.000    0.699     0  03:01           0        4.25      20.438
  T3                   STORAGE      0.000    0.926     0  03:02           0        5.63      32.425
  T2                   STORAGE      0.000    0.467     0  03:01           0         2.3      53.525
  T1                   STORAGE      0.000    0.980     0  03:02           0        7.47       7.072
  
  
  **********************
  Node Surcharge Summary
  **********************
  
  Surcharging occurs when water rises above the top of the highest conduit.
  ---------------------------------------------------------------------
                                               Max. Height   Min. Depth
                                   Hours       Above Crown    Below Rim
  Node                 Type      Surcharged         Meters       Meters
  ---------------------------------------------------------------------
  CSO7                 JUNCTION        0.63          0.945        0.000
  CSO9                 JUNCTION        0.69          1.682        0.000
  CSO8                 JUNCTION        0.60          1.547        0.000
  CSO10                JUNCTION        0.27          0.560        0.000
  J4                   JUNCTION        0.59          0.834        0.866
  
  
  *********************
  Node Flooding Summary
  *********************
  
  Flooding refers to all water that overflows a node, whether it ponds or not.
  --------------------------------------------------------------------------
                                                             Total   Maximum
                                 Maximum   Time of Max       Flood    Ponded
                        Hours       Rate    Occurrence      Volume     Depth
  Node                 Flooded       CMS   days hr:min    10^6 ltr    Meters
  --------------------------------------------------------------------------
  CSO7                    0.41     0.025      0  03:01       0.015     0.000
  CSO9                    0.07     0.009      0  03:01       0.001     0.000
  CSO8                    0.12     0.060      0  03:01       0.012     0.000
  CSO10                   0.13     0.030      0  03:01       0.007     0.000
  T5                      0.91     0.255      0  03:03       0.181     0.000
  T6                      2.31     0.624      0  03:01       1.378     0.000
  T1                      0.99     0.710      0  03:02       1.172     0.000
  
  
  **********************
  Storage Volume Summary
  **********************
  
  --------------------------------------------------------------------------------------------------
                         Average     Avg  Evap Exfil       Maximum     Max    Time of Max    Maximum
                          Volume    Pcnt  Pcnt  Pcnt        Volume    Pcnt     Occurrence    Outflow
  Storage Unit           1000 m3    Full  Loss  Loss       1000 m3    Full    days hr:min        CMS
  --------------------------------------------------------------------------------------------------
  T5                       0.335      67     0     0         0.500     100       0  03:03      0.039
  T4                       0.321      64     0     0         0.495      99       0  04:53      0.028
  T6                       0.422      70     0     0         0.600     100       0  02:49      0.075
  T3                       1.666      64     0     0         2.592     100       0  07:50      0.231
  T2                       0.609      61     0     0         0.910      91       0  04:28      0.032
  T1                       0.429      61     0     0         0.700     100       0  02:45      0.271
  
  
  ***********************
  Outfall Loading Summary
  ***********************
  
  -----------------------------------------------------------
                         Flow       Avg       Max       Total
                         Freq      Flow      Flow      Volume
  Outfall Node           Pcnt       CMS       CMS    10^6 ltr
  -----------------------------------------------------------
  Out_to_WWTP           99.01     0.193     0.271       5.395
  -----------------------------------------------------------
  System                99.01     0.193     0.271       5.395
  
  
  ********************
  Link Flow Summary
  ********************
  
  -----------------------------------------------------------------------------
                                 Maximum  Time of Max   Maximum    Max/    Max/
                                  |Flow|   Occurrence   |Veloc|    Full    Full
  Link                 Type          CMS  days hr:min     m/sec    Flow   Depth
  -----------------------------------------------------------------------------
  C1                   CONDUIT     0.039     0  03:50      1.08    0.01    0.10
  C6                   CONDUIT     0.071     0  03:01      1.29    1.13    0.75
  C2                   CONDUIT     0.028     0  04:55      1.00    0.03    0.15
  C9                   CONDUIT     0.126     0  03:02      1.28    0.43    0.50
  C16                  CONDUIT     0.488     0  03:01      1.76    0.05    0.14
  C3                   CONDUIT     0.060     0  07:43      1.31    0.02    0.11
  C19                  CONDUIT     0.032     0  04:30      0.67    0.01    0.20
  C11                  CONDUIT     0.125     0  04:59      1.45    0.01    0.11
  C20                  CONDUIT     0.680     0  03:01      2.73    0.02    0.13
  C22                  CONDUIT     0.202     0  03:02      1.58    0.09    0.31
  C12                  CONDUIT     0.075     0  04:21      0.59    0.01    0.27
  C17                  CONDUIT     0.869     0  03:01      2.95    0.04    0.26
  C10                  CONDUIT     0.699     0  03:01      1.66    0.07    0.59
  C13                  CONDUIT     0.926     0  03:02      1.45    0.05    0.75
  C18                  CONDUIT     0.467     0  03:01      1.72    0.02    0.55
  C23                  CONDUIT     0.980     0  03:02      1.24    0.11    0.61
  C4                   CONDUIT     0.330     0  03:01      1.98    0.08    0.60
  C7                   CONDUIT     0.196     0  03:01      1.43    0.05    0.57
  C14                  CONDUIT     0.271     0  02:47      2.08    0.02    0.09
  C5                   CONDUIT     0.071     0  03:01      1.38    1.21    1.00
  C8                   CONDUIT     0.127     0  03:02      1.75    1.60    0.86
  C15                  CONDUIT     0.486     0  02:59      3.42    1.55    0.83
  C21                  CONDUIT     0.202     0  03:02      1.82    1.16    0.69
  V4                   ORIFICE     0.028     0  04:53                      0.35
  V5                   ORIFICE     0.039     0  03:03                      1.00
  V1                   ORIFICE     0.271     0  02:45                      1.00
  V6                   ORIFICE     0.075     0  02:49                      0.43
  V3                   ORIFICE     0.060     0  07:50                      0.65
  V2                   ORIFICE     0.032     0  04:28                      0.24
  
  
  ***************************
  Flow Classification Summary
  ***************************
  
  -------------------------------------------------------------------------------------
                      Adjusted    ---------- Fraction of Time in Flow Class ---------- 
                       /Actual         Up    Down  Sub   Sup   Up    Down  Norm  Inlet 
  Conduit               Length    Dry  Dry   Dry   Crit  Crit  Crit  Crit  Ltd   Ctrl  
  -------------------------------------------------------------------------------------
  C1                      1.00   0.00  0.00  0.00  0.00  1.00  0.00  0.00  0.93  0.00
  C6                      1.00   0.00  0.00  0.00  0.11  0.89  0.00  0.00  0.00  0.00
  C2                      1.00   0.00  0.00  0.00  0.13  0.87  0.00  0.00  0.97  0.00
  C9                      1.00   0.00  0.00  0.00  1.00  0.00  0.00  0.00  1.00  0.00
  C16                     1.00   0.00  0.00  0.00  0.55  0.45  0.00  0.00  0.40  0.00
  C3                      1.00   0.00  0.00  0.00  0.04  0.95  0.00  0.00  0.88  0.00
  C19                     1.00   0.00  0.00  0.00  1.00  0.00  0.00  0.00  1.00  0.00
  C11                     1.00   0.00  0.00  0.00  0.36  0.64  0.00  0.00  1.00  0.00
  C20                     1.00   0.00  0.00  0.00  0.53  0.47  0.00  0.00  0.98  0.00
  C22                     1.00   0.00  0.00  0.00  0.73  0.27  0.00  0.00  1.00  0.00
  C12                     1.00   0.00  0.00  0.00  1.00  0.00  0.00  0.00  1.00  0.00
  C17                     1.00   0.00  0.00  0.00  0.57  0.43  0.00  0.00  0.95  0.00
  C10                     1.00   0.00  0.00  0.00  0.96  0.04  0.00  0.00  0.97  0.00
  C13                     1.00   0.00  0.00  0.00  0.83  0.17  0.00  0.00  0.32  0.00
  C18                     1.00   0.00  0.00  0.00  0.94  0.06  0.00  0.00  0.97  0.00
  C23                     1.00   0.00  0.00  0.00  0.88  0.12  0.00  0.00  0.94  0.00
  C4                      1.00   0.00  0.00  0.00  0.96  0.04  0.00  0.00  0.98  0.00
  C7                      1.00   0.00  0.00  0.00  0.95  0.05  0.00  0.00  0.97  0.00
  C14                     1.00   0.00  0.00  0.00  0.00  0.99  0.00  0.00  0.30  0.00
  C5                      1.00   0.00  0.00  0.00  0.90  0.10  0.00  0.00  0.89  0.00
  C8                      1.00   0.00  0.00  0.00  0.14  0.86  0.00  0.00  0.00  0.00
  C15                     1.00   0.00  0.00  0.00  0.00  1.00  0.00  0.00  0.00  0.00
  C21                     1.00   0.00  0.00  0.00  0.00  1.00  0.00  0.00  0.00  0.00
  
  
  *************************
  Conduit Surcharge Summary
  *************************
  
  ----------------------------------------------------------------------------
                                                           Hours        Hours 
                         --------- Hours Full --------   Above Full   Capacity
  Conduit                Both Ends  Upstream  Dnstream   Normal Flow   Limited
  ----------------------------------------------------------------------------
  C6                          0.01      0.59      0.01      0.49         0.01
  C10                         0.01      0.01      5.80      0.01         0.01
  C13                         0.01      0.01      5.28      0.01         0.01
  C18                         0.01      0.01      5.32      0.01         0.01
  C23                         0.01      0.01      5.88      0.01         0.01
  C4                          0.01      0.01      6.02      0.01         0.01
  C7                          0.01      0.01      5.75      0.01         0.01
  C5                          0.63      0.63      0.77      0.74         0.61
  C8                          0.01      0.69      0.01      0.72         0.01
  C15                         0.01      0.60      0.01      0.71         0.01
  C21                         0.01      0.27      0.01      0.29         0.01
  

  Analysis begun on:  Fri Sep  3 16:42:02 2021
  Analysis ended on:  Fri Sep  3 16:42:02 2021
  Total elapsed time: < 1 sec