
  EPA STORM WATER MANAGEMENT MODEL - VERSION 5.1 (Build 5.3.0.dev0)
  --------------------------------------------------------------

  
  *********************************************************
  NOTE: The summary statistics displayed in this report are
  based on results found at every computational time step,  
  not just on results from each reporting time step.
  *********************************************************
  
  ****************
  Analysis Options
  ****************
  Flow Units ............... CMS
  Process Models:
    Rainfall/Runoff ........ YES
    RDII ................... NO
    Snowmelt ............... NO
    Groundwater ............ NO
    Flow Routing ........... YES
    Ponding Allowed ........ YES
    Water Quality .......... NO
  Infiltration Method ...... HORTON
  Flow Routing Method ...... DYNWAVE
  Surcharge Method ......... EXTRAN
  Starting Date ............ 08/28/2015 08:00:00
  Ending Date .............. 08/28/2015 15:50:00
  Antecedent Dry Days ...... 0.0
  Report Time Step ......... 00:01:00
  Wet Time Step ............ 00:01:00
  Dry Time Step ............ 00:01:00
  Routing Time Step ........ 5.00 sec
  Variable Time Step ....... YES
  Maximum Trials ........... 8
  Number of Threads ........ 1
  Head Tolerance ........... 0.001500 m
  
  
  **************************        Volume         Depth
  Runoff Quantity Continuity     hectare-m            mm
  **************************     ---------       -------
  Total Precipitation ......         1.541         8.554
  Evaporation Loss .........         0.000         0.000
  Infiltration Loss ........         0.000         0.000
  Surface Runoff ...........         1.518         8.426
  Final Storage ............         0.023         0.129
  Continuity Error (%) .....        -0.012
  
  
  **************************        Volume        Volume
  Flow Routing Continuity        hectare-m      10^6 ltr
  **************************     ---------     ---------
  Dry Weather Inflow .......         0.396         3.955
  Wet Weather Inflow .......         1.518        15.184
  Groundwater Inflow .......         0.000         0.000
  RDII Inflow ..............         0.000         0.000
  External Inflow ..........         0.000         0.000
  External Outflow .........         0.578         5.779
  Flooding Loss ............         0.305         3.046
  Evaporation Loss .........         0.000         0.000
  Exfiltration Loss ........         0.000         0.000
  Initial Stored Volume ....         0.000         0.000
  Final Stored Volume ......         0.797         7.968
  Continuity Error (%) .....        12.262
  
  
  *************************
  Highest Continuity Errors
  *************************
  Node T2 (34.52%)
  Node T3 (24.09%)
  Node T4 (23.29%)
  Node T5 (21.27%)
  Node T6 (16.20%)
  
  
  ***************************
  Time-Step Critical Elements
  ***************************
  None
  
  
  ********************************
  Highest Flow Instability Indexes
  ********************************
  Link C13 (1)
  
  
  *************************
  Routing Time Step Summary
  *************************
  Minimum Time Step           :     4.50 sec
  Average Time Step           :     5.00 sec
  Maximum Time Step           :     5.00 sec
  Percent in Steady State     :     0.00
  Average Iterations per Step :     2.16
  Percent Not Converging      :     0.43
  
  
  ***************************
  Subcatchment Runoff Summary
  ***************************
  
  ------------------------------------------------------------------------------------------------------------------------------
                            Total      Total      Total      Total     Imperv       Perv      Total       Total     Peak  Runoff
                           Precip      Runon       Evap      Infil     Runoff     Runoff     Runoff      Runoff   Runoff   Coeff
  Subcatchment                 mm         mm         mm         mm         mm         mm         mm    10^6 ltr      CMS
  ------------------------------------------------------------------------------------------------------------------------------
  SC01                       8.55       0.00       0.00       0.00       8.47       0.00       8.47        2.79     0.66   0.990
  SC02                       8.55       0.00       0.00       0.00       8.46       0.00       8.46        1.93     0.45   0.989
  SC03                       8.55       0.00       0.00       0.00       8.49       0.00       8.49        1.53     0.40   0.992
  SC04                       8.55       0.00       0.00       0.00       8.36       0.00       8.36        0.58     0.10   0.978
  SC05                       8.55       0.00       0.00       0.00       8.46       0.00       8.46        1.32     0.30   0.989
  SC06                       8.55       0.00       0.00       0.00       8.31       0.00       8.31        2.71     0.43   0.972
  SC07                       8.55       0.00       0.00       0.00       8.36       0.00       8.36        0.40     0.07   0.978
  SC08                       8.55       0.00       0.00       0.00       8.44       0.00       8.44        2.36     0.49   0.987
  SC09                       8.55       0.00       0.00       0.00       8.41       0.00       8.41        0.58     0.11   0.984
  SC010                      8.55       0.00       0.00       0.00       8.44       0.00       8.44        0.99     0.21   0.987
  
  
  ******************
  Node Depth Summary
  ******************
  
  ---------------------------------------------------------------------------------
                                 Average  Maximum  Maximum  Time of Max    Reported
                                   Depth    Depth      HGL   Occurrence   Max Depth
  Node                 Type       Meters   Meters   Meters  days hr:min      Meters
  ---------------------------------------------------------------------------------
  J1                   JUNCTION     0.08     0.19    34.19     0  01:29        0.19
  J3                   JUNCTION     0.10     0.11    18.11     0  04:54        0.11
  CSO7                 JUNCTION     0.15     1.20    35.20     0  01:30        1.20
  J5                   JUNCTION     0.07     0.14    32.14     0  01:37        0.14
  CSO9                 JUNCTION     0.18     1.68    41.68     0  01:33        1.68
  J8                   JUNCTION     0.12     0.25    36.25     0  01:37        0.25
  CSO8                 JUNCTION     0.22     2.00    34.00     0  01:26        2.00
  J10                  JUNCTION     0.10     0.28    29.28     0  01:30        0.28
  J13                  JUNCTION     0.07     0.18    29.18     0  01:29        0.18
  J15                  JUNCTION     0.17     0.32    15.32     0  01:33        0.32
  J16                  JUNCTION     0.07     0.20    30.20     0  01:28        0.20
  CSO10                JUNCTION     0.15     1.00    31.00     0  01:23        1.00
  J12                  JUNCTION     0.58     1.00    27.00     0  06:52        1.00
  J4                   JUNCTION     0.15     1.30    34.30     0  01:30        0.75
  J6                   JUNCTION     0.06     0.07    25.07     0  04:33        0.07
  J2                   JUNCTION     0.07     0.08    25.08     0  03:39        0.08
  J19                  JUNCTION     0.14     0.17     8.17     0  02:06        0.17
  J9                   JUNCTION     0.10     0.11    29.11     0  03:41        0.11
  J14                  JUNCTION     0.09     0.10    20.10     0  07:50        0.10
  J17                  JUNCTION     0.06     0.07    20.07     0  04:23        0.07
  J7                   JUNCTION     0.09     0.22    39.22     0  01:36        0.22
  J11                  JUNCTION     0.11     0.30    31.30     0  01:37        0.30
  J18                  JUNCTION     0.06     0.16    29.16     0  01:37        0.16
  Out_to_WWTP          OUTFALL      0.14     0.17     6.17     0  03:50        0.17
  T5                   STORAGE      3.63     5.00    32.00     0  02:53        5.00
  T4                   STORAGE      3.49     5.00    32.00     0  03:48        5.00
  T6                   STORAGE      3.82     5.00    36.00     0  02:15        5.00
  T3                   STORAGE      3.51     5.00    27.00     0  06:26        5.00
  T2                   STORAGE      3.36     4.70    25.70     0  04:20        4.70
  T1                   STORAGE      3.41     5.00    15.00     0  02:05        5.00
  
  
  *******************
  Node Inflow Summary
  *******************
  
  -------------------------------------------------------------------------------------------------
                                  Maximum  Maximum                  Lateral       Total        Flow
                                  Lateral    Total  Time of Max      Inflow      Inflow     Balance
                                   Inflow   Inflow   Occurrence      Volume      Volume       Error
  Node                 Type           CMS      CMS  days hr:min    10^6 ltr    10^6 ltr     Percent
  -------------------------------------------------------------------------------------------------
  J1                   JUNCTION     0.322    0.322     0  01:29        1.88        1.88      -0.007
  J3                   JUNCTION     0.000    0.126     0  04:53           0        2.79       1.037
  CSO7                 JUNCTION     0.079    0.079     0  01:37       0.688       0.688       0.078
  J5                   JUNCTION     0.105    0.175     0  01:37       0.705        1.38       0.091
  CSO9                 JUNCTION     0.119    0.119     0  01:34       0.777       0.777       0.030
  J8                   JUNCTION     0.459    0.578     0  01:37        3.65        4.42       0.083
  CSO8                 JUNCTION     0.505    0.505     0  01:31        2.65        2.65       0.017
  J10                  JUNCTION     0.416    0.882     0  01:28        1.91        4.55       0.010
  J13                  JUNCTION     0.460    0.460     0  01:28        2.39        2.39      -0.288
  J15                  JUNCTION     0.000    0.944     0  01:29           0        7.94       0.848
  J16                  JUNCTION     0.681    0.681     0  01:28        3.35        3.35      -0.030
  CSO10                JUNCTION     0.215    0.215     0  01:31        1.13        1.13       0.030
  J12                  JUNCTION     0.000    0.910     0  01:30           0        6.57      13.938
  J4                   JUNCTION     0.000    0.074     0  01:30           0       0.684       0.476
  J6                   JUNCTION     0.000    0.028     0  03:48           0       0.601       0.658
  J2                   JUNCTION     0.000    0.039     0  02:53           0       0.881       0.576
  J19                  JUNCTION     0.000    0.271     0  02:05           0        5.79       0.178
  J9                   JUNCTION     0.000    0.075     0  02:15           0        1.74       1.005
  J14                  JUNCTION     0.000    0.060     0  06:26           0        1.32       0.333
  J17                  JUNCTION     0.000    0.032     0  04:20           0        0.71       0.907
  J7                   JUNCTION     0.000    0.119     0  01:34           0       0.776       0.410
  J11                  JUNCTION     0.000    0.486     0  01:37           0        2.65       0.255
  J18                  JUNCTION     0.000    0.202     0  01:37           0        1.12       0.071
  Out_to_WWTP          OUTFALL      0.000    0.271     0  02:07           0        5.78       0.000
  T5                   STORAGE      0.000    0.322     0  01:29           0        1.88      27.018
  T4                   STORAGE      0.000    0.175     0  01:37           0        1.38      30.367
  T6                   STORAGE      0.000    0.574     0  01:37           0        4.42      19.337
  T3                   STORAGE      0.000    0.899     0  01:33           0        5.77      31.737
  T2                   STORAGE      0.000    0.460     0  01:29           0         2.4      52.713
  T1                   STORAGE      0.000    0.926     0  01:33           0        7.87       6.687
  
  
  **********************
  Node Surcharge Summary
  **********************
  
  Surcharging occurs when water rises above the top of the highest conduit.
  ---------------------------------------------------------------------
                                               Max. Height   Min. Depth
                                   Hours       Above Crown    Below Rim
  Node                 Type      Surcharged         Meters       Meters
  ---------------------------------------------------------------------
  CSO7                 JUNCTION        0.45          0.945        0.000
  CSO9                 JUNCTION        0.53          1.365        0.317
  CSO8                 JUNCTION        0.47          1.547        0.000
  CSO10                JUNCTION        0.31          0.560        0.000
  J4                   JUNCTION        0.42          1.002        0.698
  
  
  *********************
  Node Flooding Summary
  *********************
  
  Flooding refers to all water that overflows a node, whether it ponds or not.
  --------------------------------------------------------------------------
                                                             Total   Maximum
                                 Maximum   Time of Max       Flood    Ponded
                        Hours       Rate    Occurrence      Volume     Depth
  Node                 Flooded       CMS   days hr:min    10^6 ltr    Meters
  --------------------------------------------------------------------------
  CSO7                    0.18     0.008      0  01:30       0.004     0.000
  CSO8                    0.18     0.019      0  01:31       0.008     0.000
  CSO10                   0.21     0.013      0  01:31       0.007     0.000
  T5                      0.98     0.164      0  03:01       0.201     0.000
  T4                      0.91     0.017      0  03:48       0.021     0.000
  T6                      2.77     0.374      0  03:01       1.459     0.000
  T3                      1.04     0.136      0  06:33       0.160     0.000
  T1                      1.57     0.396      0  03:02       1.186     0.000
  
  
  **********************
  Storage Volume Summary
  **********************
  
  --------------------------------------------------------------------------------------------------
                         Average     Avg  Evap Exfil       Maximum     Max    Time of Max    Maximum
                          Volume    Pcnt  Pcnt  Pcnt        Volume    Pcnt     Occurrence    Outflow
  Storage Unit           1000 m3    Full  Loss  Loss       1000 m3    Full    days hr:min        CMS
  --------------------------------------------------------------------------------------------------
  T5                       0.363      73     0     0         0.500     100       0  02:53      0.039
  T4                       0.349      70     0     0         0.500     100       0  03:48      0.028
  T6                       0.459      76     0     0         0.600     100       0  02:15      0.075
  T3                       1.824      70     0     0         2.600     100       0  06:26      0.206
  T2                       0.673      67     0     0         0.940      94       0  04:20      0.032
  T1                       0.477      68     0     0         0.700     100       0  02:05      0.271
  
  
  ***********************
  Outfall Loading Summary
  ***********************
  
  -----------------------------------------------------------
                         Flow       Avg       Max       Total
                         Freq      Flow      Flow      Volume
  Outfall Node           Pcnt       CMS       CMS    10^6 ltr
  -----------------------------------------------------------
  Out_to_WWTP           99.01     0.207     0.271       5.779
  -----------------------------------------------------------
  System                99.01     0.207     0.271       5.779
  
  
  ********************
  Link Flow Summary
  ********************
  
  -----------------------------------------------------------------------------
                                 Maximum  Time of Max   Maximum    Max/    Max/
                                  |Flow|   Occurrence   |Veloc|    Full    Full
  Link                 Type          CMS  days hr:min     m/sec    Flow   Depth
  -----------------------------------------------------------------------------
  C1                   CONDUIT     0.039     0  03:39      1.06    0.01    0.10
  C6                   CONDUIT     0.071     0  01:37      1.28    1.12    0.74
  C2                   CONDUIT     0.028     0  04:32      1.01    0.03    0.16
  C9                   CONDUIT     0.118     0  01:36      1.32    0.40    0.47
  C16                  CONDUIT     0.485     0  01:33      1.76    0.05    0.14
  C3                   CONDUIT     0.060     0  07:50      1.31    0.02    0.11
  C19                  CONDUIT     0.032     0  04:23      0.67    0.01    0.19
  C11                  CONDUIT     0.126     0  04:54      1.45    0.01    0.10
  C20                  CONDUIT     0.681     0  01:28      3.03    0.02    0.13
  C22                  CONDUIT     0.202     0  01:37      1.61    0.09    0.30
  C12                  CONDUIT     0.075     0  03:41      0.61    0.01    0.28
  C17                  CONDUIT     0.878     0  01:30      3.07    0.04    0.26
  C10                  CONDUIT     0.574     0  01:37      1.66    0.06    0.58
  C13                  CONDUIT     0.899     0  01:33      1.91    0.05    0.75
  C18                  CONDUIT     0.460     0  01:29      1.72    0.02    0.54
  C23                  CONDUIT     0.926     0  01:33      1.42    0.10    0.61
  C4                   CONDUIT     0.322     0  01:29      1.98    0.08    0.59
  C7                   CONDUIT     0.175     0  01:37      1.43    0.04    0.57
  C14                  CONDUIT     0.271     0  02:07      2.08    0.02    0.09
  C5                   CONDUIT     0.074     0  01:30      1.45    1.27    1.00
  C8                   CONDUIT     0.119     0  01:34      1.66    1.50    0.85
  C15                  CONDUIT     0.486     0  01:37      3.43    1.55    0.83
  C21                  CONDUIT     0.202     0  01:37      1.83    1.16    0.69
  V4                   ORIFICE     0.028     0  03:48                      0.35
  V5                   ORIFICE     0.039     0  02:53                      1.00
  V1                   ORIFICE     0.271     0  02:05                      1.00
  V6                   ORIFICE     0.075     0  02:15                      0.43
  V3                   ORIFICE     0.060     0  06:26                      0.65
  V2                   ORIFICE     0.032     0  04:20                      0.24
  
  
  ***************************
  Flow Classification Summary
  ***************************
  
  -------------------------------------------------------------------------------------
                      Adjusted    ---------- Fraction of Time in Flow Class ---------- 
                       /Actual         Up    Down  Sub   Sup   Up    Down  Norm  Inlet 
  Conduit               Length    Dry  Dry   Dry   Crit  Crit  Crit  Crit  Ltd   Ctrl  
  -------------------------------------------------------------------------------------
  C1                      1.00   0.00  0.00  0.00  0.00  1.00  0.00  0.00  0.94  0.00
  C6                      1.00   0.00  0.00  0.00  0.09  0.91  0.00  0.00  0.00  0.00
  C2                      1.00   0.00  0.00  0.00  0.13  0.87  0.00  0.00  0.95  0.00
  C9                      1.00   0.00  0.00  0.00  0.99  0.01  0.00  0.00  1.00  0.00
  C16                     1.00   0.00  0.00  0.00  0.56  0.44  0.00  0.00  0.44  0.00
  C3                      1.00   0.00  0.00  0.00  0.05  0.95  0.00  0.00  0.87  0.00
  C19                     1.00   0.00  0.00  0.00  1.00  0.00  0.00  0.00  1.00  0.00
  C11                     1.00   0.00  0.00  0.00  0.36  0.64  0.00  0.00  1.00  0.00
  C20                     1.00   0.00  0.00  0.00  0.54  0.46  0.00  0.00  0.98  0.00
  C22                     1.00   0.00  0.00  0.00  0.72  0.28  0.00  0.00  1.00  0.00
  C12                     1.00   0.00  0.00  0.00  1.00  0.00  0.00  0.00  1.00  0.00
  C17                     1.00   0.00  0.00  0.00  0.60  0.40  0.00  0.00  0.93  0.00
  C10                     1.00   0.00  0.00  0.00  0.96  0.04  0.00  0.00  0.97  0.00
  C13                     1.00   0.00  0.00  0.00  0.82  0.18  0.00  0.00  0.29  0.00
  C18                     1.00   0.00  0.00  0.00  0.93  0.07  0.00  0.00  0.97  0.00
  C23                     1.00   0.00  0.00  0.00  0.86  0.14  0.00  0.00  0.94  0.00
  C4                      1.00   0.00  0.00  0.00  0.96  0.04  0.00  0.00  0.98  0.00
  C7                      1.00   0.00  0.00  0.00  0.94  0.06  0.00  0.00  0.97  0.00
  C14                     1.00   0.00  0.00  0.00  0.00  0.99  0.00  0.00  0.30  0.00
  C5                      1.00   0.00  0.00  0.00  0.93  0.07  0.00  0.00  0.89  0.00
  C8                      1.00   0.00  0.00  0.00  0.15  0.85  0.00  0.00  0.00  0.00
  C15                     1.00   0.00  0.00  0.00  0.00  1.00  0.00  0.00  0.00  0.00
  C21                     1.00   0.00  0.00  0.00  0.01  0.99  0.00  0.00  0.00  0.00
  
  
  *************************
  Conduit Surcharge Summary
  *************************
  
  ----------------------------------------------------------------------------
                                                           Hours        Hours 
                         --------- Hours Full --------   Above Full   Capacity
  Conduit                Both Ends  Upstream  Dnstream   Normal Flow   Limited
  ----------------------------------------------------------------------------
  C6                          0.01      0.42      0.01      0.26         0.01
  C10                         0.01      0.01      6.29      0.01         0.01
  C13                         0.01      0.01      5.93      0.01         0.01
  C18                         0.01      0.01      6.02      0.01         0.01
  C23                         0.01      0.01      6.35      0.01         0.01
  C4                          0.01      0.01      6.42      0.01         0.01
  C7                          0.01      0.01      6.25      0.01         0.01
  C5                          0.42      0.45      0.59      0.55         0.37
  C8                          0.01      0.53      0.01      0.53         0.01
  C15                         0.01      0.47      0.01      0.55         0.01
  C21                         0.01      0.31      0.01      0.30         0.01
  

  Analysis begun on:  Fri Sep  3 16:42:40 2021
  Analysis ended on:  Fri Sep  3 16:42:40 2021
  Total elapsed time: < 1 sec