
  EPA STORM WATER MANAGEMENT MODEL - VERSION 5.1 (Build 5.3.0.dev0)
  --------------------------------------------------------------

  
  *********************************************************
  NOTE: The summary statistics displayed in this report are
  based on results found at every computational time step,  
  not just on results from each reporting time step.
  *********************************************************
  
  ****************
  Analysis Options
  ****************
  Flow Units ............... CMS
  Process Models:
    Rainfall/Runoff ........ YES
    RDII ................... NO
    Snowmelt ............... NO
    Groundwater ............ NO
    Flow Routing ........... YES
    Ponding Allowed ........ YES
    Water Quality .......... NO
  Infiltration Method ...... HORTON
  Flow Routing Method ...... DYNWAVE
  Surcharge Method ......... EXTRAN
  Starting Date ............ 08/28/2015 08:00:00
  Ending Date .............. 08/28/2015 15:50:00
  Antecedent Dry Days ...... 0.0
  Report Time Step ......... 00:01:00
  Wet Time Step ............ 00:01:00
  Dry Time Step ............ 00:01:00
  Routing Time Step ........ 5.00 sec
  Variable Time Step ....... YES
  Maximum Trials ........... 8
  Number of Threads ........ 1
  Head Tolerance ........... 0.001500 m
  
  
  **************************        Volume         Depth
  Runoff Quantity Continuity     hectare-m            mm
  **************************     ---------       -------
  Total Precipitation ......         1.456         8.080
  Evaporation Loss .........         0.000         0.000
  Infiltration Loss ........         0.000         0.000
  Surface Runoff ...........         1.432         7.948
  Final Storage ............         0.024         0.133
  Continuity Error (%) .....        -0.009
  
  
  **************************        Volume        Volume
  Flow Routing Continuity        hectare-m      10^6 ltr
  **************************     ---------     ---------
  Dry Weather Inflow .......         0.396         3.955
  Wet Weather Inflow .......         1.432        14.322
  Groundwater Inflow .......         0.000         0.000
  RDII Inflow ..............         0.000         0.000
  External Inflow ..........         0.000         0.000
  External Outflow .........         0.532         5.315
  Flooding Loss ............         0.282         2.820
  Evaporation Loss .........         0.000         0.000
  Exfiltration Loss ........         0.000         0.000
  Initial Stored Volume ....         0.000         0.000
  Final Stored Volume ......         0.783         7.828
  Continuity Error (%) .....        12.665
  
  
  *************************
  Highest Continuity Errors
  *************************
  Node T2 (34.95%)
  Node T3 (24.81%)
  Node T4 (24.25%)
  Node T5 (22.20%)
  Node T6 (17.15%)
  
  
  ***************************
  Time-Step Critical Elements
  ***************************
  None
  
  
  ********************************
  Highest Flow Instability Indexes
  ********************************
  Link C13 (1)
  
  
  *************************
  Routing Time Step Summary
  *************************
  Minimum Time Step           :     4.50 sec
  Average Time Step           :     5.00 sec
  Maximum Time Step           :     5.00 sec
  Percent in Steady State     :     0.00
  Average Iterations per Step :     2.18
  Percent Not Converging      :     0.60
  
  
  ***************************
  Subcatchment Runoff Summary
  ***************************
  
  ------------------------------------------------------------------------------------------------------------------------------
                            Total      Total      Total      Total     Imperv       Perv      Total       Total     Peak  Runoff
                           Precip      Runon       Evap      Infil     Runoff     Runoff     Runoff      Runoff   Runoff   Coeff
  Subcatchment                 mm         mm         mm         mm         mm         mm         mm    10^6 ltr      CMS
  ------------------------------------------------------------------------------------------------------------------------------
  SC01                       8.08       0.00       0.00       0.00       7.99       0.00       7.99        2.64     0.84   0.989
  SC02                       8.08       0.00       0.00       0.00       7.99       0.00       7.99        1.82     0.57   0.989
  SC03                       8.08       0.00       0.00       0.00       8.01       0.00       8.01        1.44     0.49   0.991
  SC04                       8.08       0.00       0.00       0.00       7.88       0.00       7.88        0.54     0.14   0.976
  SC05                       8.08       0.00       0.00       0.00       7.99       0.00       7.99        1.25     0.39   0.989
  SC06                       8.08       0.00       0.00       0.00       7.83       0.00       7.83        2.55     0.64   0.969
  SC07                       8.08       0.00       0.00       0.00       7.88       0.00       7.88        0.37     0.10   0.976
  SC08                       8.08       0.00       0.00       0.00       7.96       0.00       7.96        2.23     0.66   0.985
  SC09                       8.08       0.00       0.00       0.00       7.94       0.00       7.94        0.55     0.16   0.982
  SC010                      8.08       0.00       0.00       0.00       7.97       0.00       7.97        0.94     0.28   0.986
  
  
  ******************
  Node Depth Summary
  ******************
  
  ---------------------------------------------------------------------------------
                                 Average  Maximum  Maximum  Time of Max    Reported
                                   Depth    Depth      HGL   Occurrence   Max Depth
  Node                 Type       Meters   Meters   Meters  days hr:min      Meters
  ---------------------------------------------------------------------------------
  J1                   JUNCTION     0.08     0.21    34.21     0  03:01        0.21
  J3                   JUNCTION     0.09     0.11    18.11     0  05:04        0.11
  CSO7                 JUNCTION     0.17     1.20    35.20     0  02:45        1.20
  J5                   JUNCTION     0.07     0.16    32.16     0  03:01        0.16
  CSO9                 JUNCTION     0.20     2.00    42.00     0  02:53        2.00
  J8                   JUNCTION     0.12     0.29    36.29     0  03:01        0.29
  CSO8                 JUNCTION     0.22     2.00    34.00     0  02:51        2.00
  J10                  JUNCTION     0.10     0.30    29.30     0  03:01        0.30
  J13                  JUNCTION     0.07     0.20    29.20     0  03:01        0.20
  J15                  JUNCTION     0.16     0.36    15.36     0  03:02        0.36
  J16                  JUNCTION     0.07     0.22    30.22     0  03:01        0.22
  CSO10                JUNCTION     0.15     1.00    31.00     0  02:51        1.00
  J12                  JUNCTION     0.47     0.93    26.93     0  07:44        0.93
  J4                   JUNCTION     0.16     1.21    34.21     0  02:45        0.76
  J6                   JUNCTION     0.06     0.07    25.07     0  05:00        0.07
  J2                   JUNCTION     0.07     0.08    25.08     0  03:52        0.08
  J19                  JUNCTION     0.14     0.17     8.17     0  02:53        0.17
  J9                   JUNCTION     0.09     0.11    29.11     0  04:26        0.11
  J14                  JUNCTION     0.08     0.10    20.10     0  07:49        0.10
  J17                  JUNCTION     0.06     0.07    20.07     0  04:33        0.07
  J7                   JUNCTION     0.09     0.23    39.23     0  03:04        0.23
  J11                  JUNCTION     0.11     0.30    31.30     0  02:55        0.30
  J18                  JUNCTION     0.06     0.16    29.16     0  03:05        0.16
  Out_to_WWTP          OUTFALL      0.14     0.17     6.17     0  03:57        0.17
  T5                   STORAGE      3.30     5.00    32.00     0  03:05        5.00
  T4                   STORAGE      3.11     4.87    31.87     0  04:58        4.87
  T6                   STORAGE      3.46     5.00    36.00     0  02:54        5.00
  T3                   STORAGE      3.13     4.94    26.94     0  07:48        4.94
  T2                   STORAGE      2.99     4.53    25.53     0  04:31        4.53
  T1                   STORAGE      3.00     5.00    15.00     0  02:51        5.00
  
  
  *******************
  Node Inflow Summary
  *******************
  
  -------------------------------------------------------------------------------------------------
                                  Maximum  Maximum                  Lateral       Total        Flow
                                  Lateral    Total  Time of Max      Inflow      Inflow     Balance
                                   Inflow   Inflow   Occurrence      Volume      Volume       Error
  Node                 Type           CMS      CMS  days hr:min    10^6 ltr    10^6 ltr     Percent
  -------------------------------------------------------------------------------------------------
  J1                   JUNCTION     0.413    0.413     0  03:01        1.81        1.81       0.026
  J3                   JUNCTION     0.000    0.125     0  05:03           0        2.58       1.116
  CSO7                 JUNCTION     0.111    0.111     0  03:01       0.665       0.665       0.069
  J5                   JUNCTION     0.150    0.221     0  03:01       0.671        1.31       0.126
  CSO9                 JUNCTION     0.164    0.164     0  03:01       0.744       0.744       0.063
  J8                   JUNCTION     0.679    0.806     0  03:01        3.49        4.22       0.125
  CSO8                 JUNCTION     0.672    0.672     0  03:01        2.52        2.52       0.024
  J10                  JUNCTION     0.502    0.990     0  03:01        1.83        4.27       0.055
  J13                  JUNCTION     0.589    0.589     0  03:01        2.28        2.28      -0.163
  J15                  JUNCTION     0.000    1.185     0  03:01           0        7.43       0.920
  J16                  JUNCTION     0.862    0.862     0  03:01        3.19        3.19      -0.007
  CSO10                JUNCTION     0.286    0.286     0  03:01        1.07        1.07       0.034
  J12                  JUNCTION     0.000    1.051     0  03:01           0        6.24      13.355
  J4                   JUNCTION     0.000    0.071     0  03:01           0       0.638       0.528
  J6                   JUNCTION     0.000    0.028     0  04:58           0       0.557       0.707
  J2                   JUNCTION     0.000    0.039     0  03:05           0       0.824       0.617
  J19                  JUNCTION     0.000    0.271     0  02:52           0        5.33       0.194
  J9                   JUNCTION     0.000    0.075     0  02:54           0        1.62       1.050
  J14                  JUNCTION     0.000    0.060     0  07:48           0        1.21       0.362
  J17                  JUNCTION     0.000    0.032     0  04:31           0       0.655       0.949
  J7                   JUNCTION     0.000    0.127     0  03:04           0       0.732       0.430
  J11                  JUNCTION     0.000    0.486     0  02:55           0        2.45       0.255
  J18                  JUNCTION     0.000    0.202     0  03:05           0        1.04       0.092
  Out_to_WWTP          OUTFALL      0.000    0.271     0  02:53           0        5.32       0.000
  T5                   STORAGE      0.000    0.409     0  03:01           0        1.81      28.527
  T4                   STORAGE      0.000    0.218     0  03:01           0         1.3      32.006
  T6                   STORAGE      0.000    0.791     0  03:01           0        4.21      20.698
  T3                   STORAGE      0.000    1.025     0  03:02           0        5.51      32.998
  T2                   STORAGE      0.000    0.583     0  03:01           0        2.29      53.733
  T1                   STORAGE      0.000    1.124     0  03:02           0        7.36       7.161
  
  
  **********************
  Node Surcharge Summary
  **********************
  
  Surcharging occurs when water rises above the top of the highest conduit.
  ---------------------------------------------------------------------
                                               Max. Height   Min. Depth
                                   Hours       Above Crown    Below Rim
  Node                 Type      Surcharged         Meters       Meters
  ---------------------------------------------------------------------
  CSO7                 JUNCTION        0.61          0.945        0.000
  CSO9                 JUNCTION        0.63          1.682        0.000
  CSO8                 JUNCTION        0.57          1.547        0.000
  CSO10                JUNCTION        0.33          0.560        0.000
  J4                   JUNCTION        0.57          0.912        0.788
  
  
  *********************
  Node Flooding Summary
  *********************
  
  Flooding refers to all water that overflows a node, whether it ponds or not.
  --------------------------------------------------------------------------
                                                             Total   Maximum
                                 Maximum   Time of Max       Flood    Ponded
                        Hours       Rate    Occurrence      Volume     Depth
  Node                 Flooded       CMS   days hr:min    10^6 ltr    Meters
  --------------------------------------------------------------------------
  CSO7                    0.43     0.040      0  03:01       0.026     0.000
  CSO9                    0.19     0.037      0  03:01       0.012     0.000
  CSO8                    0.22     0.186      0  03:01       0.068     0.000
  CSO10                   0.23     0.083      0  03:01       0.032     0.000
  T5                      0.99     0.253      0  03:05       0.180     0.000
  T6                      2.25     0.715      0  03:01       1.356     0.000
  T1                      0.92     0.853      0  03:02       1.146     0.000
  
  
  **********************
  Storage Volume Summary
  **********************
  
  --------------------------------------------------------------------------------------------------
                         Average     Avg  Evap Exfil       Maximum     Max    Time of Max    Maximum
                          Volume    Pcnt  Pcnt  Pcnt        Volume    Pcnt     Occurrence    Outflow
  Storage Unit           1000 m3    Full  Loss  Loss       1000 m3    Full    days hr:min        CMS
  --------------------------------------------------------------------------------------------------
  T5                       0.330      66     0     0         0.500     100       0  03:05      0.039
  T4                       0.311      62     0     0         0.487      97       0  04:58      0.028
  T6                       0.415      69     0     0         0.600     100       0  02:54      0.075
  T3                       1.627      63     0     0         2.569      99       0  07:48      0.202
  T2                       0.598      60     0     0         0.906      91       0  04:31      0.032
  T1                       0.420      60     0     0         0.700     100       0  02:51      0.271
  
  
  ***********************
  Outfall Loading Summary
  ***********************
  
  -----------------------------------------------------------
                         Flow       Avg       Max       Total
                         Freq      Flow      Flow      Volume
  Outfall Node           Pcnt       CMS       CMS    10^6 ltr
  -----------------------------------------------------------
  Out_to_WWTP           99.01     0.190     0.271       5.315
  -----------------------------------------------------------
  System                99.01     0.190     0.271       5.315
  
  
  ********************
  Link Flow Summary
  ********************
  
  -----------------------------------------------------------------------------
                                 Maximum  Time of Max   Maximum    Max/    Max/
                                  |Flow|   Occurrence   |Veloc|    Full    Full
  Link                 Type          CMS  days hr:min     m/sec    Flow   Depth
  -----------------------------------------------------------------------------
  C1                   CONDUIT     0.039     0  03:53      1.08    0.01    0.10
  C6                   CONDUIT     0.071     0  03:01      1.29    1.13    0.76
  C2                   CONDUIT     0.028     0  05:00      1.00    0.03    0.15
  C9                   CONDUIT     0.127     0  03:04      1.28    0.43    0.52
  C16                  CONDUIT     0.489     0  02:59      1.77    0.05    0.15
  C3                   CONDUIT     0.060     0  07:49      1.31    0.02    0.11
  C19                  CONDUIT     0.032     0  04:33      0.67    0.01    0.21
  C11                  CONDUIT     0.125     0  05:04      1.44    0.01    0.11
  C20                  CONDUIT     0.853     0  03:01      3.04    0.03    0.14
  C22                  CONDUIT     0.202     0  03:05      1.59    0.09    0.33
  C12                  CONDUIT     0.075     0  04:26      0.59    0.01    0.26
  C17                  CONDUIT     0.976     0  03:01      3.08    0.05    0.25
  C10                  CONDUIT     0.791     0  03:01      1.66    0.08    0.60
  C13                  CONDUIT     1.025     0  03:02      1.45    0.06    0.73
  C18                  CONDUIT     0.583     0  03:01      1.72    0.02    0.55
  C23                  CONDUIT     1.124     0  03:02      1.24    0.12    0.62
  C4                   CONDUIT     0.409     0  03:01      1.98    0.10    0.61
  C7                   CONDUIT     0.218     0  03:01      1.43    0.05    0.58
  C14                  CONDUIT     0.271     0  02:53      2.08    0.02    0.09
  C5                   CONDUIT     0.071     0  03:01      1.39    1.22    1.00
  C8                   CONDUIT     0.127     0  03:04      1.75    1.60    0.86
  C15                  CONDUIT     0.486     0  02:55      3.42    1.55    0.83
  C21                  CONDUIT     0.202     0  03:05      1.83    1.16    0.69
  V4                   ORIFICE     0.028     0  04:58                      0.35
  V5                   ORIFICE     0.039     0  03:05                      1.00
  V1                   ORIFICE     0.271     0  02:52                      1.00
  V6                   ORIFICE     0.075     0  02:54                      0.43
  V3                   ORIFICE     0.060     0  07:48                      0.65
  V2                   ORIFICE     0.032     0  04:31                      0.24
  
  
  ***************************
  Flow Classification Summary
  ***************************
  
  -------------------------------------------------------------------------------------
                      Adjusted    ---------- Fraction of Time in Flow Class ---------- 
                       /Actual         Up    Down  Sub   Sup   Up    Down  Norm  Inlet 
  Conduit               Length    Dry  Dry   Dry   Crit  Crit  Crit  Crit  Ltd   Ctrl  
  -------------------------------------------------------------------------------------
  C1                      1.00   0.00  0.00  0.00  0.00  1.00  0.00  0.00  0.93  0.00
  C6                      1.00   0.00  0.00  0.00  0.10  0.90  0.00  0.00  0.00  0.00
  C2                      1.00   0.00  0.00  0.00  0.11  0.89  0.00  0.00  0.97  0.00
  C9                      1.00   0.00  0.00  0.00  1.00  0.00  0.00  0.00  1.00  0.00
  C16                     1.00   0.00  0.00  0.00  0.55  0.45  0.00  0.00  0.39  0.00
  C3                      1.00   0.00  0.00  0.00  0.04  0.95  0.00  0.00  0.90  0.00
  C19                     1.00   0.00  0.00  0.00  1.00  0.00  0.00  0.00  1.00  0.00
  C11                     1.00   0.00  0.00  0.00  0.36  0.64  0.00  0.00  1.00  0.00
  C20                     1.00   0.00  0.00  0.00  0.52  0.48  0.00  0.00  0.98  0.00
  C22                     1.00   0.00  0.00  0.00  0.73  0.27  0.00  0.00  1.00  0.00
  C12                     1.00   0.00  0.00  0.00  1.00  0.00  0.00  0.00  1.00  0.00
  C17                     1.00   0.00  0.00  0.00  0.56  0.44  0.00  0.00  0.97  0.00
  C10                     1.00   0.00  0.00  0.00  0.96  0.04  0.00  0.00  0.97  0.00
  C13                     1.00   0.00  0.00  0.00  0.85  0.15  0.00  0.00  0.33  0.00
  C18                     1.00   0.00  0.00  0.00  0.94  0.06  0.00  0.00  0.97  0.00
  C23                     1.00   0.00  0.00  0.00  0.88  0.12  0.00  0.00  0.94  0.00
  C4                      1.00   0.00  0.00  0.00  0.96  0.04  0.00  0.00  0.98  0.00
  C7                      1.00   0.00  0.00  0.00  0.95  0.05  0.00  0.00  0.97  0.00
  C14                     1.00   0.00  0.00  0.00  0.00  0.99  0.00  0.00  0.30  0.00
  C5                      1.00   0.00  0.00  0.00  0.89  0.11  0.00  0.00  0.90  0.00
  C8                      1.00   0.00  0.00  0.00  0.12  0.88  0.00  0.00  0.00  0.00
  C15                     1.00   0.00  0.00  0.00  0.00  1.00  0.00  0.00  0.00  0.00
  C21                     1.00   0.00  0.00  0.00  0.00  1.00  0.00  0.00  0.00  0.00
  
  
  *************************
  Conduit Surcharge Summary
  *************************
  
  ----------------------------------------------------------------------------
                                                           Hours        Hours 
                         --------- Hours Full --------   Above Full   Capacity
  Conduit                Both Ends  Upstream  Dnstream   Normal Flow   Limited
  ----------------------------------------------------------------------------
  C6                          0.01      0.57      0.01      0.47         0.01
  C10                         0.01      0.01      5.70      0.01         0.01
  C13                         0.01      0.01      5.16      0.01         0.01
  C18                         0.01      0.01      5.20      0.01         0.01
  C23                         0.01      0.01      5.76      0.01         0.01
  C4                          0.01      0.01      5.92      0.01         0.01
  C7                          0.01      0.01      5.64      0.01         0.01
  C5                          0.61      0.61      0.72      0.68         0.58
  C8                          0.01      0.63      0.01      0.66         0.01
  C15                         0.01      0.57      0.01      0.65         0.01
  C21                         0.01      0.33      0.01      0.34         0.01
  

  Analysis begun on:  Fri Sep  3 16:44:07 2021
  Analysis ended on:  Fri Sep  3 16:44:08 2021
  Total elapsed time: 00:00:01