
  EPA STORM WATER MANAGEMENT MODEL - VERSION 5.1 (Build 5.3.0.dev0)
  --------------------------------------------------------------

  
  *********************************************************
  NOTE: The summary statistics displayed in this report are
  based on results found at every computational time step,  
  not just on results from each reporting time step.
  *********************************************************
  
  ****************
  Analysis Options
  ****************
  Flow Units ............... CMS
  Process Models:
    Rainfall/Runoff ........ YES
    RDII ................... NO
    Snowmelt ............... NO
    Groundwater ............ NO
    Flow Routing ........... YES
    Ponding Allowed ........ YES
    Water Quality .......... NO
  Infiltration Method ...... HORTON
  Flow Routing Method ...... DYNWAVE
  Surcharge Method ......... EXTRAN
  Starting Date ............ 08/28/2015 08:00:00
  Ending Date .............. 08/28/2015 15:50:00
  Antecedent Dry Days ...... 0.0
  Report Time Step ......... 00:01:00
  Wet Time Step ............ 00:01:00
  Dry Time Step ............ 00:01:00
  Routing Time Step ........ 5.00 sec
  Variable Time Step ....... YES
  Maximum Trials ........... 8
  Number of Threads ........ 1
  Head Tolerance ........... 0.001500 m
  
  
  **************************        Volume         Depth
  Runoff Quantity Continuity     hectare-m            mm
  **************************     ---------       -------
  Total Precipitation ......         0.978         5.429
  Evaporation Loss .........         0.000         0.000
  Infiltration Loss ........         0.000         0.000
  Surface Runoff ...........         0.955         5.301
  Final Storage ............         0.023         0.128
  Continuity Error (%) .....        -0.007
  
  
  **************************        Volume        Volume
  Flow Routing Continuity        hectare-m      10^6 ltr
  **************************     ---------     ---------
  Dry Weather Inflow .......         0.396         3.955
  Wet Weather Inflow .......         0.955         9.552
  Groundwater Inflow .......         0.000         0.000
  RDII Inflow ..............         0.000         0.000
  External Inflow ..........         0.000         0.000
  External Outflow .........         0.501         5.008
  Flooding Loss ............         0.045         0.451
  Evaporation Loss .........         0.000         0.000
  Exfiltration Loss ........         0.000         0.000
  Initial Stored Volume ....         0.000         0.000
  Final Stored Volume ......         0.634         6.336
  Continuity Error (%) .....        12.672
  
  
  *************************
  Highest Continuity Errors
  *************************
  Node T2 (33.52%)
  Node T3 (26.52%)
  Node T5 (23.61%)
  Node T4 (22.84%)
  Node T6 (22.45%)
  
  
  ***************************
  Time-Step Critical Elements
  ***************************
  None
  
  
  ********************************
  Highest Flow Instability Indexes
  ********************************
  All links are stable.
  
  
  *************************
  Routing Time Step Summary
  *************************
  Minimum Time Step           :     4.50 sec
  Average Time Step           :     5.00 sec
  Maximum Time Step           :     5.00 sec
  Percent in Steady State     :     0.00
  Average Iterations per Step :     2.01
  Percent Not Converging      :     0.04
  
  
  ***************************
  Subcatchment Runoff Summary
  ***************************
  
  ------------------------------------------------------------------------------------------------------------------------------
                            Total      Total      Total      Total     Imperv       Perv      Total       Total     Peak  Runoff
                           Precip      Runon       Evap      Infil     Runoff     Runoff     Runoff      Runoff   Runoff   Coeff
  Subcatchment                 mm         mm         mm         mm         mm         mm         mm    10^6 ltr      CMS
  ------------------------------------------------------------------------------------------------------------------------------
  SC01                       5.43       0.00       0.00       0.00       5.34       0.00       5.34        1.76     0.39   0.984
  SC02                       5.43       0.00       0.00       0.00       5.34       0.00       5.34        1.21     0.27   0.983
  SC03                       5.43       0.00       0.00       0.00       5.36       0.00       5.36        0.96     0.22   0.987
  SC04                       5.43       0.00       0.00       0.00       5.24       0.00       5.24        0.36     0.07   0.965
  SC05                       5.43       0.00       0.00       0.00       5.34       0.00       5.34        0.83     0.18   0.983
  SC06                       5.43       0.00       0.00       0.00       5.19       0.00       5.19        1.69     0.32   0.956
  SC07                       5.43       0.00       0.00       0.00       5.24       0.00       5.24        0.25     0.05   0.965
  SC08                       5.43       0.00       0.00       0.00       5.31       0.00       5.31        1.49     0.32   0.979
  SC09                       5.43       0.00       0.00       0.00       5.29       0.00       5.29        0.36     0.08   0.974
  SC010                      5.43       0.00       0.00       0.00       5.32       0.00       5.32        0.62     0.13   0.979
  
  
  ******************
  Node Depth Summary
  ******************
  
  ---------------------------------------------------------------------------------
                                 Average  Maximum  Maximum  Time of Max    Reported
                                   Depth    Depth      HGL   Occurrence   Max Depth
  Node                 Type       Meters   Meters   Meters  days hr:min      Meters
  ---------------------------------------------------------------------------------
  J1                   JUNCTION     0.07     0.15    34.15     0  03:01        0.15
  J3                   JUNCTION     0.09     0.11    18.11     0  06:09        0.11
  CSO7                 JUNCTION     0.10     0.22    34.22     0  03:01        0.22
  J5                   JUNCTION     0.06     0.12    32.12     0  03:01        0.12
  CSO9                 JUNCTION     0.11     0.62    40.62     0  03:01        0.59
  J8                   JUNCTION     0.10     0.22    36.22     0  03:01        0.22
  CSO8                 JUNCTION     0.12     0.41    32.41     0  03:01        0.41
  J10                  JUNCTION     0.09     0.23    29.23     0  03:01        0.22
  J13                  JUNCTION     0.06     0.14    29.14     0  03:01        0.14
  J15                  JUNCTION     0.15     0.27    15.27     0  03:02        0.27
  J16                  JUNCTION     0.06     0.16    30.16     0  03:01        0.16
  CSO10                JUNCTION     0.11     0.32    30.32     0  03:01        0.32
  J12                  JUNCTION     0.15     0.29    26.29     0  07:48        0.29
  J4                   JUNCTION     0.12     0.25    33.25     0  03:03        0.25
  J6                   JUNCTION     0.05     0.07    25.07     0  05:11        0.07
  J2                   JUNCTION     0.06     0.07    25.07     0  04:12        0.07
  J19                  JUNCTION     0.13     0.17     8.17     0  03:15        0.17
  J9                   JUNCTION     0.09     0.11    29.11     0  04:29        0.11
  J14                  JUNCTION     0.08     0.10    20.10     0  07:50        0.10
  J17                  JUNCTION     0.06     0.07    20.07     0  05:01        0.07
  J7                   JUNCTION     0.08     0.18    39.18     0  03:02        0.18
  J11                  JUNCTION     0.09     0.24    31.24     0  03:02        0.24
  J18                  JUNCTION     0.05     0.13    29.13     0  03:02        0.13
  Out_to_WWTP          OUTFALL      0.13     0.17     6.17     0  03:41        0.17
  T5                   STORAGE      2.64     3.99    30.99     0  04:10        3.99
  T4                   STORAGE      2.27     3.49    30.49     0  05:09        3.49
  T6                   STORAGE      3.34     5.00    36.00     0  03:15        5.00
  T3                   STORAGE      2.56     4.29    26.29     0  07:50        4.29
  T2                   STORAGE      2.06     3.06    24.06     0  05:00        3.06
  T1                   STORAGE      2.68     5.00    15.00     0  03:14        5.00
  
  
  *******************
  Node Inflow Summary
  *******************
  
  -------------------------------------------------------------------------------------------------
                                  Maximum  Maximum                  Lateral       Total        Flow
                                  Lateral    Total  Time of Max      Inflow      Inflow     Balance
                                   Inflow   Inflow   Occurrence      Volume      Volume       Error
  Node                 Type           CMS      CMS  days hr:min    10^6 ltr    10^6 ltr     Percent
  -------------------------------------------------------------------------------------------------
  J1                   JUNCTION     0.206    0.206     0  03:01        1.39        1.39       0.041
  J3                   JUNCTION     0.000    0.112     0  06:06           0        2.31       1.150
  CSO7                 JUNCTION     0.061    0.061     0  03:01       0.539       0.539       0.088
  J5                   JUNCTION     0.077    0.134     0  03:01       0.489        1.02       0.164
  CSO9                 JUNCTION     0.084    0.084     0  03:01       0.561       0.561       0.061
  J8                   JUNCTION     0.361    0.438     0  03:01        2.63        3.19       0.167
  CSO8                 JUNCTION     0.328    0.328     0  03:01        1.78        1.78       0.030
  J10                  JUNCTION     0.238    0.552     0  03:01        1.35        3.12       0.168
  J13                  JUNCTION     0.287    0.287     0  03:01        1.68        1.68      -0.196
  J15                  JUNCTION     0.000    0.656     0  03:01           0        5.91       1.071
  J16                  JUNCTION     0.415    0.415     0  03:01        2.32        2.32       0.019
  CSO10                JUNCTION     0.140    0.140     0  03:01       0.764       0.764       0.055
  J12                  JUNCTION     0.000    0.608     0  03:01           0        4.69       3.253
  J4                   JUNCTION     0.000    0.061     0  03:01           0       0.539       0.695
  J6                   JUNCTION     0.000    0.023     0  05:09           0       0.475       0.742
  J2                   JUNCTION     0.000    0.035     0  04:10           0        0.74       0.635
  J19                  JUNCTION     0.000    0.271     0  03:14           0        5.02       0.193
  J9                   JUNCTION     0.000    0.075     0  03:15           0        1.59       1.075
  J14                  JUNCTION     0.000    0.056     0  07:50           0        1.11       0.376
  J17                  JUNCTION     0.000    0.026     0  05:00           0        0.55       0.973
  J7                   JUNCTION     0.000    0.084     0  03:01           0       0.561       0.570
  J11                  JUNCTION     0.000    0.326     0  03:01           0        1.78       0.337
  J18                  JUNCTION     0.000    0.139     0  03:01           0       0.763       0.142
  Out_to_WWTP          OUTFALL      0.000    0.271     0  03:15           0        5.01       0.000
  T5                   STORAGE      0.000    0.204     0  03:01           0        1.39      30.904
  T4                   STORAGE      0.000    0.132     0  03:01           0        1.02      29.596
  T6                   STORAGE      0.000    0.431     0  03:01           0        3.18      28.945
  T3                   STORAGE      0.000    0.595     0  03:03           0        4.55      36.100
  T2                   STORAGE      0.000    0.283     0  03:01           0        1.69      50.418
  T1                   STORAGE      0.000    0.632     0  03:02           0        5.85       7.701
  
  
  **********************
  Node Surcharge Summary
  **********************
  
  Surcharging occurs when water rises above the top of the highest conduit.
  ---------------------------------------------------------------------
                                               Max. Height   Min. Depth
                                   Hours       Above Crown    Below Rim
  Node                 Type      Surcharged         Meters       Meters
  ---------------------------------------------------------------------
  CSO9                 JUNCTION        0.04          0.300        1.382
  
  
  *********************
  Node Flooding Summary
  *********************
  
  Flooding refers to all water that overflows a node, whether it ponds or not.
  --------------------------------------------------------------------------
                                                             Total   Maximum
                                 Maximum   Time of Max       Flood    Ponded
                        Hours       Rate    Occurrence      Volume     Depth
  Node                 Flooded       CMS   days hr:min    10^6 ltr    Meters
  --------------------------------------------------------------------------
  T6                      1.78     0.223      0  03:15       0.374     0.000
  T1                      0.31     0.170      0  03:14       0.076     0.000
  
  
  **********************
  Storage Volume Summary
  **********************
  
  --------------------------------------------------------------------------------------------------
                         Average     Avg  Evap Exfil       Maximum     Max    Time of Max    Maximum
                          Volume    Pcnt  Pcnt  Pcnt        Volume    Pcnt     Occurrence    Outflow
  Storage Unit           1000 m3    Full  Loss  Loss       1000 m3    Full    days hr:min        CMS
  --------------------------------------------------------------------------------------------------
  T5                       0.264      53     0     0         0.399      80       0  04:10      0.035
  T4                       0.227      45     0     0         0.349      70       0  05:09      0.023
  T6                       0.401      67     0     0         0.600     100       0  03:15      0.075
  T3                       1.329      51     0     0         2.230      86       0  07:50      0.056
  T2                       0.413      41     0     0         0.612      61       0  05:00      0.026
  T1                       0.376      54     0     0         0.700     100       0  03:14      0.271
  
  
  ***********************
  Outfall Loading Summary
  ***********************
  
  -----------------------------------------------------------
                         Flow       Avg       Max       Total
                         Freq      Flow      Flow      Volume
  Outfall Node           Pcnt       CMS       CMS    10^6 ltr
  -----------------------------------------------------------
  Out_to_WWTP           99.01     0.179     0.271       5.008
  -----------------------------------------------------------
  System                99.01     0.179     0.271       5.008
  
  
  ********************
  Link Flow Summary
  ********************
  
  -----------------------------------------------------------------------------
                                 Maximum  Time of Max   Maximum    Max/    Max/
                                  |Flow|   Occurrence   |Veloc|    Full    Full
  Link                 Type          CMS  days hr:min     m/sec    Flow   Depth
  -----------------------------------------------------------------------------
  C1                   CONDUIT     0.035     0  04:12      1.02    0.01    0.09
  C6                   CONDUIT     0.058     0  03:03      1.27    0.92    0.62
  C2                   CONDUIT     0.023     0  05:11      0.93    0.03    0.14
  C9                   CONDUIT     0.079     0  03:02      1.12    0.27    0.39
  C16                  CONDUIT     0.319     0  03:02      1.55    0.03    0.12
  C3                   CONDUIT     0.056     0  07:50      1.29    0.02    0.10
  C19                  CONDUIT     0.026     0  05:01      0.60    0.01    0.17
  C11                  CONDUIT     0.112     0  06:09      1.41    0.01    0.09
  C20                  CONDUIT     0.410     0  03:01      2.28    0.01    0.11
  C22                  CONDUIT     0.136     0  03:02      1.37    0.06    0.25
  C12                  CONDUIT     0.075     0  04:29      1.09    0.01    0.10
  C17                  CONDUIT     0.542     0  03:01      2.54    0.03    0.12
  C10                  CONDUIT     0.431     0  03:01      1.66    0.04    0.57
  C13                  CONDUIT     0.595     0  03:03      1.45    0.03    0.57
  C18                  CONDUIT     0.283     0  03:01      1.72    0.01    0.54
  C23                  CONDUIT     0.632     0  03:02      1.24    0.07    0.59
  C4                   CONDUIT     0.204     0  03:01      1.98    0.05    0.58
  C7                   CONDUIT     0.132     0  03:01      1.43    0.03    0.56
  C14                  CONDUIT     0.271     0  03:15      2.08    0.02    0.09
  C5                   CONDUIT     0.061     0  03:01      1.24    1.04    0.91
  C8                   CONDUIT     0.084     0  03:01      1.30    1.06    0.78
  C15                  CONDUIT     0.326     0  03:01      2.66    1.04    0.72
  C21                  CONDUIT     0.139     0  03:01      1.73    0.79    0.52
  V4                   ORIFICE     0.023     0  05:09                      0.35
  V5                   ORIFICE     0.035     0  04:10                      1.00
  V1                   ORIFICE     0.271     0  03:14                      1.00
  V6                   ORIFICE     0.075     0  03:15                      0.43
  V3                   ORIFICE     0.056     0  07:50                      0.65
  V2                   ORIFICE     0.026     0  05:00                      0.24
  
  
  ***************************
  Flow Classification Summary
  ***************************
  
  -------------------------------------------------------------------------------------
                      Adjusted    ---------- Fraction of Time in Flow Class ---------- 
                       /Actual         Up    Down  Sub   Sup   Up    Down  Norm  Inlet 
  Conduit               Length    Dry  Dry   Dry   Crit  Crit  Crit  Crit  Ltd   Ctrl  
  -------------------------------------------------------------------------------------
  C1                      1.00   0.00  0.00  0.00  0.00  1.00  0.00  0.00  0.93  0.00
  C6                      1.00   0.00  0.00  0.00  0.01  0.99  0.00  0.00  0.00  0.00
  C2                      1.00   0.00  0.00  0.00  0.15  0.85  0.00  0.00  0.97  0.00
  C9                      1.00   0.00  0.00  0.00  1.00  0.00  0.00  0.00  1.00  0.00
  C16                     1.00   0.00  0.00  0.00  0.58  0.42  0.00  0.00  0.47  0.00
  C3                      1.00   0.00  0.00  0.00  0.04  0.95  0.00  0.00  0.85  0.00
  C19                     1.00   0.00  0.00  0.00  1.00  0.00  0.00  0.00  1.00  0.00
  C11                     1.00   0.00  0.00  0.00  0.35  0.65  0.00  0.00  1.00  0.00
  C20                     1.00   0.00  0.00  0.00  0.53  0.47  0.00  0.00  0.98  0.00
  C22                     1.00   0.00  0.00  0.00  0.77  0.23  0.00  0.00  1.00  0.00
  C12                     1.00   0.00  0.00  0.00  0.68  0.32  0.00  0.00  1.00  0.00
  C17                     1.00   0.00  0.00  0.00  0.39  0.61  0.00  0.00  0.97  0.00
  C10                     1.00   0.00  0.00  0.00  0.96  0.04  0.00  0.00  0.97  0.00
  C13                     1.00   0.00  0.00  0.00  0.85  0.15  0.00  0.00  0.68  0.00
  C18                     1.00   0.00  0.00  0.00  0.94  0.06  0.00  0.00  0.97  0.00
  C23                     1.00   0.00  0.00  0.00  0.88  0.12  0.00  0.00  0.94  0.00
  C4                      1.00   0.00  0.00  0.00  0.96  0.04  0.00  0.00  0.98  0.00
  C7                      1.00   0.00  0.00  0.00  0.95  0.05  0.00  0.00  0.97  0.00
  C14                     1.00   0.00  0.00  0.00  0.00  0.99  0.00  0.00  0.37  0.00
  C5                      1.00   0.00  0.00  0.00  0.89  0.11  0.00  0.00  0.98  0.00
  C8                      1.00   0.00  0.00  0.00  0.05  0.95  0.00  0.00  0.00  0.00
  C15                     1.00   0.00  0.00  0.00  0.00  1.00  0.00  0.00  0.00  0.00
  C21                     1.00   0.00  0.00  0.00  0.00  1.00  0.00  0.00  0.00  0.00
  
  
  *************************
  Conduit Surcharge Summary
  *************************
  
  ----------------------------------------------------------------------------
                                                           Hours        Hours 
                         --------- Hours Full --------   Above Full   Capacity
  Conduit                Both Ends  Upstream  Dnstream   Normal Flow   Limited
  ----------------------------------------------------------------------------
  C10                         0.01      0.01      5.58      0.01         0.01
  C13                         0.01      0.01      4.95      0.01         0.01
  C18                         0.01      0.01      4.97      0.01         0.01
  C23                         0.01      0.01      5.64      0.01         0.01
  C4                          0.01      0.01      5.82      0.01         0.01
  C7                          0.01      0.01      5.53      0.01         0.01
  C5                          0.01      0.01      0.01      0.05         0.01
  C8                          0.01      0.04      0.01      0.04         0.01
  C15                         0.01      0.01      0.01      0.05         0.01
  

  Analysis begun on:  Fri Sep  3 16:22:20 2021
  Analysis ended on:  Fri Sep  3 16:22:20 2021
  Total elapsed time: < 1 sec