
  EPA STORM WATER MANAGEMENT MODEL - VERSION 5.1 (Build 5.3.0.dev0)
  --------------------------------------------------------------

  
  *********************************************************
  NOTE: The summary statistics displayed in this report are
  based on results found at every computational time step,  
  not just on results from each reporting time step.
  *********************************************************
  
  ****************
  Analysis Options
  ****************
  Flow Units ............... CMS
  Process Models:
    Rainfall/Runoff ........ YES
    RDII ................... NO
    Snowmelt ............... NO
    Groundwater ............ NO
    Flow Routing ........... YES
    Ponding Allowed ........ YES
    Water Quality .......... NO
  Infiltration Method ...... HORTON
  Flow Routing Method ...... DYNWAVE
  Surcharge Method ......... EXTRAN
  Starting Date ............ 08/28/2015 08:00:00
  Ending Date .............. 08/28/2015 15:50:00
  Antecedent Dry Days ...... 0.0
  Report Time Step ......... 00:01:00
  Wet Time Step ............ 00:01:00
  Dry Time Step ............ 00:01:00
  Routing Time Step ........ 5.00 sec
  Variable Time Step ....... YES
  Maximum Trials ........... 8
  Number of Threads ........ 1
  Head Tolerance ........... 0.001500 m
  
  
  **************************        Volume         Depth
  Runoff Quantity Continuity     hectare-m            mm
  **************************     ---------       -------
  Total Precipitation ......         1.308         7.261
  Evaporation Loss .........         0.000         0.000
  Infiltration Loss ........         0.000         0.000
  Surface Runoff ...........         1.286         7.134
  Final Storage ............         0.023         0.128
  Continuity Error (%) .....        -0.006
  
  
  **************************        Volume        Volume
  Flow Routing Continuity        hectare-m      10^6 ltr
  **************************     ---------     ---------
  Dry Weather Inflow .......         0.396         3.955
  Wet Weather Inflow .......         1.286        12.855
  Groundwater Inflow .......         0.000         0.000
  RDII Inflow ..............         0.000         0.000
  External Inflow ..........         0.000         0.000
  External Outflow .........         0.531         5.315
  Flooding Loss ............         0.194         1.941
  Evaporation Loss .........         0.000         0.000
  Exfiltration Loss ........         0.000         0.000
  Initial Stored Volume ....         0.000         0.000
  Final Stored Volume ......         0.742         7.416
  Continuity Error (%) .....        12.724
  
  
  *************************
  Highest Continuity Errors
  *************************
  Node T2 (34.32%)
  Node T3 (26.03%)
  Node T5 (23.69%)
  Node T4 (23.50%)
  Node T6 (18.22%)
  
  
  ***************************
  Time-Step Critical Elements
  ***************************
  None
  
  
  ********************************
  Highest Flow Instability Indexes
  ********************************
  Link C13 (1)
  
  
  *************************
  Routing Time Step Summary
  *************************
  Minimum Time Step           :     4.50 sec
  Average Time Step           :     5.00 sec
  Maximum Time Step           :     5.00 sec
  Percent in Steady State     :     0.00
  Average Iterations per Step :     2.14
  Percent Not Converging      :     0.34
  
  
  ***************************
  Subcatchment Runoff Summary
  ***************************
  
  ------------------------------------------------------------------------------------------------------------------------------
                            Total      Total      Total      Total     Imperv       Perv      Total       Total     Peak  Runoff
                           Precip      Runon       Evap      Infil     Runoff     Runoff     Runoff      Runoff   Runoff   Coeff
  Subcatchment                 mm         mm         mm         mm         mm         mm         mm    10^6 ltr      CMS
  ------------------------------------------------------------------------------------------------------------------------------
  SC01                       7.26       0.00       0.00       0.00       7.18       0.00       7.18        2.37     0.56   0.988
  SC02                       7.26       0.00       0.00       0.00       7.17       0.00       7.17        1.63     0.38   0.988
  SC03                       7.26       0.00       0.00       0.00       7.19       0.00       7.19        1.29     0.33   0.991
  SC04                       7.26       0.00       0.00       0.00       7.07       0.00       7.07        0.49     0.10   0.974
  SC05                       7.26       0.00       0.00       0.00       7.17       0.00       7.17        1.12     0.26   0.988
  SC06                       7.26       0.00       0.00       0.00       7.02       0.00       7.02        2.29     0.42   0.967
  SC07                       7.26       0.00       0.00       0.00       7.07       0.00       7.07        0.34     0.07   0.974
  SC08                       7.26       0.00       0.00       0.00       7.15       0.00       7.15        2.00     0.44   0.984
  SC09                       7.26       0.00       0.00       0.00       7.12       0.00       7.12        0.49     0.10   0.981
  SC010                      7.26       0.00       0.00       0.00       7.15       0.00       7.15        0.84     0.19   0.985
  
  
  ******************
  Node Depth Summary
  ******************
  
  ---------------------------------------------------------------------------------
                                 Average  Maximum  Maximum  Time of Max    Reported
                                   Depth    Depth      HGL   Occurrence   Max Depth
  Node                 Type       Meters   Meters   Meters  days hr:min      Meters
  ---------------------------------------------------------------------------------
  J1                   JUNCTION     0.07     0.18    34.18     0  02:20        0.18
  J3                   JUNCTION     0.09     0.11    18.11     0  04:59        0.11
  CSO7                 JUNCTION     0.17     1.20    35.20     0  02:18        1.20
  J5                   JUNCTION     0.07     0.14    32.14     0  02:25        0.14
  CSO9                 JUNCTION     0.17     1.39    41.39     0  02:21        1.39
  J8                   JUNCTION     0.11     0.25    36.25     0  02:27        0.25
  CSO8                 JUNCTION     0.20     1.69    33.69     0  02:20        1.69
  J10                  JUNCTION     0.10     0.27    29.27     0  02:21        0.27
  J13                  JUNCTION     0.06     0.17    29.17     0  02:20        0.17
  J15                  JUNCTION     0.16     0.31    15.31     0  02:24        0.31
  J16                  JUNCTION     0.07     0.19    30.19     0  02:19        0.19
  CSO10                JUNCTION     0.14     0.94    30.94     0  02:16        0.85
  J12                  JUNCTION     0.38     0.77    26.77     0  07:44        0.77
  J4                   JUNCTION     0.16     1.29    34.29     0  02:18        1.25
  J6                   JUNCTION     0.06     0.07    25.07     0  04:54        0.07
  J2                   JUNCTION     0.07     0.08    25.08     0  03:47        0.08
  J19                  JUNCTION     0.14     0.17     8.17     0  02:36        0.17
  J9                   JUNCTION     0.09     0.11    29.11     0  04:05        0.11
  J14                  JUNCTION     0.08     0.10    20.10     0  07:49        0.10
  J17                  JUNCTION     0.06     0.07    20.07     0  04:29        0.07
  J7                   JUNCTION     0.09     0.21    39.21     0  02:25        0.21
  J11                  JUNCTION     0.10     0.29    31.29     0  02:22        0.29
  J18                  JUNCTION     0.06     0.16    29.16     0  02:22        0.16
  Out_to_WWTP          OUTFALL      0.14     0.17     6.17     0  03:43        0.17
  T5                   STORAGE      3.36     5.00    32.00     0  03:08        5.00
  T4                   STORAGE      2.94     4.45    31.45     0  04:52        4.45
  T6                   STORAGE      3.52     5.00    36.00     0  02:41        5.00
  T3                   STORAGE      3.10     4.78    26.78     0  07:48        4.78
  T2                   STORAGE      2.78     4.05    25.05     0  04:27        4.05
  T1                   STORAGE      3.00     5.00    15.00     0  02:35        5.00
  
  
  *******************
  Node Inflow Summary
  *******************
  
  -------------------------------------------------------------------------------------------------
                                  Maximum  Maximum                  Lateral       Total        Flow
                                  Lateral    Total  Time of Max      Inflow      Inflow     Balance
                                   Inflow   Inflow   Occurrence      Volume      Volume       Error
  Node                 Type           CMS      CMS  days hr:min    10^6 ltr    10^6 ltr     Percent
  -------------------------------------------------------------------------------------------------
  J1                   JUNCTION     0.283    0.283     0  02:19        1.68        1.68       0.029
  J3                   JUNCTION     0.000    0.122     0  04:58           0        2.57       1.106
  CSO7                 JUNCTION     0.077    0.077     0  02:24       0.626       0.626       0.070
  J5                   JUNCTION     0.101    0.171     0  02:24       0.616        1.23       0.129
  CSO9                 JUNCTION     0.112    0.112     0  02:22       0.688       0.688       0.050
  J8                   JUNCTION     0.459    0.569     0  02:26        3.23        3.91       0.132
  CSO8                 JUNCTION     0.455    0.455     0  02:21        2.29        2.29       0.014
  J10                  JUNCTION     0.341    0.783     0  02:20        1.68        3.97       0.094
  J13                  JUNCTION     0.400    0.400     0  02:19         2.1         2.1      -0.196
  J15                  JUNCTION     0.000    0.866     0  02:20           0        7.07       0.945
  J16                  JUNCTION     0.585    0.585     0  02:19        2.92        2.92       0.001
  CSO10                JUNCTION     0.193    0.193     0  02:21       0.979       0.979       0.025
  J12                  JUNCTION     0.000    0.834     0  02:22           0        5.68      11.355
  J4                   JUNCTION     0.000    0.073     0  02:17           0       0.621       0.530
  J6                   JUNCTION     0.000    0.026     0  04:52           0       0.549       0.691
  J2                   JUNCTION     0.000    0.039     0  03:09           0       0.833       0.607
  J19                  JUNCTION     0.000    0.271     0  02:35           0        5.32       0.190
  J9                   JUNCTION     0.000    0.075     0  02:41           0        1.64       1.046
  J14                  JUNCTION     0.000    0.059     0  07:48           0         1.2       0.361
  J17                  JUNCTION     0.000    0.030     0  04:27           0       0.636       0.941
  J7                   JUNCTION     0.000    0.112     0  02:22           0       0.687       0.459
  J11                  JUNCTION     0.000    0.455     0  02:21           0        2.29       0.268
  J18                  JUNCTION     0.000    0.193     0  02:21           0       0.979       0.097
  Out_to_WWTP          OUTFALL      0.000    0.271     0  02:37           0        5.31       0.000
  T5                   STORAGE      0.000    0.283     0  02:20           0        1.68      31.049
  T4                   STORAGE      0.000    0.171     0  02:25           0        1.23      30.714
  T6                   STORAGE      0.000    0.569     0  02:27           0        3.91      22.280
  T3                   STORAGE      0.000    0.826     0  02:25           0         5.1      35.197
  T2                   STORAGE      0.000    0.400     0  02:20           0         2.1      52.247
  T1                   STORAGE      0.000    0.852     0  02:24           0           7       7.109
  
  
  **********************
  Node Surcharge Summary
  **********************
  
  Surcharging occurs when water rises above the top of the highest conduit.
  ---------------------------------------------------------------------
                                               Max. Height   Min. Depth
                                   Hours       Above Crown    Below Rim
  Node                 Type      Surcharged         Meters       Meters
  ---------------------------------------------------------------------
  CSO7                 JUNCTION        0.76          0.945        0.000
  CSO9                 JUNCTION        0.72          1.068        0.614
  CSO8                 JUNCTION        0.64          1.233        0.314
  CSO10                JUNCTION        0.32          0.501        0.059
  J4                   JUNCTION        0.75          0.986        0.714
  
  
  *********************
  Node Flooding Summary
  *********************
  
  Flooding refers to all water that overflows a node, whether it ponds or not.
  --------------------------------------------------------------------------
                                                             Total   Maximum
                                 Maximum   Time of Max       Flood    Ponded
                        Hours       Rate    Occurrence      Volume     Depth
  Node                 Flooded       CMS   days hr:min    10^6 ltr    Meters
  --------------------------------------------------------------------------
  CSO7                    0.34     0.007      0  02:18       0.005     0.000
  T5                      0.65     0.068      0  03:08       0.050     0.000
  T6                      2.33     0.444      0  02:41       1.050     0.000
  T1                      0.97     0.505      0  02:35       0.835     0.000
  
  
  **********************
  Storage Volume Summary
  **********************
  
  --------------------------------------------------------------------------------------------------
                         Average     Avg  Evap Exfil       Maximum     Max    Time of Max    Maximum
                          Volume    Pcnt  Pcnt  Pcnt        Volume    Pcnt     Occurrence    Outflow
  Storage Unit           1000 m3    Full  Loss  Loss       1000 m3    Full    days hr:min        CMS
  --------------------------------------------------------------------------------------------------
  T5                       0.336      67     0     0         0.500     100       0  03:08      0.039
  T4                       0.294      59     0     0         0.445      89       0  04:52      0.026
  T6                       0.423      70     0     0         0.600     100       0  02:41      0.075
  T3                       1.614      62     0     0         2.485      96       0  07:48      0.101
  T2                       0.556      56     0     0         0.810      81       0  04:27      0.030
  T1                       0.420      60     0     0         0.700     100       0  02:35      0.271
  
  
  ***********************
  Outfall Loading Summary
  ***********************
  
  -----------------------------------------------------------
                         Flow       Avg       Max       Total
                         Freq      Flow      Flow      Volume
  Outfall Node           Pcnt       CMS       CMS    10^6 ltr
  -----------------------------------------------------------
  Out_to_WWTP           99.01     0.190     0.271       5.315
  -----------------------------------------------------------
  System                99.01     0.190     0.271       5.315
  
  
  ********************
  Link Flow Summary
  ********************
  
  -----------------------------------------------------------------------------
                                 Maximum  Time of Max   Maximum    Max/    Max/
                                  |Flow|   Occurrence   |Veloc|    Full    Full
  Link                 Type          CMS  days hr:min     m/sec    Flow   Depth
  -----------------------------------------------------------------------------
  C1                   CONDUIT     0.039     0  03:47      1.06    0.01    0.09
  C6                   CONDUIT     0.071     0  02:25      1.29    1.12    0.73
  C2                   CONDUIT     0.026     0  04:54      0.97    0.03    0.15
  C9                   CONDUIT     0.111     0  02:25      1.26    0.38    0.46
  C16                  CONDUIT     0.453     0  02:23      1.72    0.04    0.14
  C3                   CONDUIT     0.059     0  07:49      1.30    0.02    0.11
  C19                  CONDUIT     0.030     0  04:29      0.65    0.01    0.19
  C11                  CONDUIT     0.122     0  04:59      1.44    0.01    0.10
  C20                  CONDUIT     0.584     0  02:19      2.68    0.02    0.12
  C22                  CONDUIT     0.193     0  02:22      1.57    0.09    0.29
  C12                  CONDUIT     0.075     0  04:05      0.76    0.01    0.22
  C17                  CONDUIT     0.780     0  02:22      2.90    0.04    0.21
  C10                  CONDUIT     0.569     0  02:27      1.66    0.06    0.58
  C13                  CONDUIT     0.826     0  02:25      1.45    0.05    0.69
  C18                  CONDUIT     0.400     0  02:20      1.72    0.01    0.54
  C23                  CONDUIT     0.852     0  02:24      1.24    0.09    0.60
  C4                   CONDUIT     0.283     0  02:20      1.98    0.07    0.59
  C7                   CONDUIT     0.171     0  02:25      1.43    0.04    0.57
  C14                  CONDUIT     0.271     0  02:37      2.08    0.02    0.09
  C5                   CONDUIT     0.073     0  02:17      1.43    1.25    1.00
  C8                   CONDUIT     0.112     0  02:22      1.58    1.41    0.84
  C15                  CONDUIT     0.455     0  02:21      3.23    1.45    0.82
  C21                  CONDUIT     0.193     0  02:21      1.76    1.11    0.68
  V4                   ORIFICE     0.026     0  04:52                      0.35
  V5                   ORIFICE     0.039     0  03:09                      1.00
  V1                   ORIFICE     0.271     0  02:35                      1.00
  V6                   ORIFICE     0.075     0  02:41                      0.43
  V3                   ORIFICE     0.059     0  07:48                      0.65
  V2                   ORIFICE     0.030     0  04:27                      0.24
  
  
  ***************************
  Flow Classification Summary
  ***************************
  
  -------------------------------------------------------------------------------------
                      Adjusted    ---------- Fraction of Time in Flow Class ---------- 
                       /Actual         Up    Down  Sub   Sup   Up    Down  Norm  Inlet 
  Conduit               Length    Dry  Dry   Dry   Crit  Crit  Crit  Crit  Ltd   Ctrl  
  -------------------------------------------------------------------------------------
  C1                      1.00   0.00  0.00  0.00  0.00  1.00  0.00  0.00  0.93  0.00
  C6                      1.00   0.00  0.00  0.00  0.12  0.88  0.00  0.00  0.00  0.00
  C2                      1.00   0.00  0.00  0.00  0.04  0.96  0.00  0.00  0.97  0.00
  C9                      1.00   0.00  0.00  0.00  1.00  0.00  0.00  0.00  1.00  0.00
  C16                     1.00   0.00  0.00  0.00  0.58  0.41  0.00  0.00  0.48  0.00
  C3                      1.00   0.00  0.00  0.00  0.04  0.95  0.00  0.00  0.96  0.00
  C19                     1.00   0.00  0.00  0.00  1.00  0.00  0.00  0.00  1.00  0.00
  C11                     1.00   0.00  0.00  0.00  0.34  0.66  0.00  0.00  1.00  0.00
  C20                     1.00   0.00  0.00  0.00  0.55  0.45  0.00  0.00  0.98  0.00
  C22                     1.00   0.00  0.00  0.00  0.76  0.24  0.00  0.00  1.00  0.00
  C12                     1.00   0.00  0.00  0.00  1.00  0.00  0.00  0.00  1.00  0.00
  C17                     1.00   0.00  0.00  0.00  0.56  0.44  0.00  0.00  0.97  0.00
  C10                     1.00   0.00  0.00  0.00  0.96  0.04  0.00  0.00  0.97  0.00
  C13                     1.00   0.00  0.00  0.00  0.88  0.12  0.00  0.00  0.33  0.00
  C18                     1.00   0.00  0.00  0.00  0.94  0.06  0.00  0.00  0.97  0.00
  C23                     1.00   0.00  0.00  0.00  0.88  0.12  0.00  0.00  0.94  0.00
  C4                      1.00   0.00  0.00  0.00  0.96  0.04  0.00  0.00  0.98  0.00
  C7                      1.00   0.00  0.00  0.00  0.95  0.05  0.00  0.00  0.97  0.00
  C14                     1.00   0.00  0.00  0.00  0.00  0.99  0.00  0.00  0.33  0.00
  C5                      1.00   0.00  0.00  0.00  0.89  0.11  0.00  0.00  0.88  0.00
  C8                      1.00   0.00  0.00  0.00  0.13  0.87  0.00  0.00  0.00  0.00
  C15                     1.00   0.00  0.00  0.00  0.00  1.00  0.00  0.00  0.00  0.00
  C21                     1.00   0.00  0.00  0.00  0.01  0.99  0.00  0.00  0.00  0.00
  
  
  *************************
  Conduit Surcharge Summary
  *************************
  
  ----------------------------------------------------------------------------
                                                           Hours        Hours 
                         --------- Hours Full --------   Above Full   Capacity
  Conduit                Both Ends  Upstream  Dnstream   Normal Flow   Limited
  ----------------------------------------------------------------------------
  C6                          0.01      0.75      0.01      0.52         0.01
  C10                         0.01      0.01      5.76      0.01         0.01
  C13                         0.01      0.01      5.38      0.01         0.01
  C18                         0.01      0.01      5.43      0.01         0.01
  C23                         0.01      0.01      5.81      0.01         0.01
  C4                          0.01      0.01      5.95      0.01         0.01
  C7                          0.01      0.01      5.70      0.01         0.01
  C5                          0.74      0.76      0.87      0.76         0.68
  C8                          0.01      0.72      0.01      0.71         0.01
  C15                         0.01      0.64      0.01      0.70         0.01
  C21                         0.01      0.32      0.01      0.27         0.01
  

  Analysis begun on:  Fri Sep  3 16:25:14 2021
  Analysis ended on:  Fri Sep  3 16:25:14 2021
  Total elapsed time: < 1 sec