
  EPA STORM WATER MANAGEMENT MODEL - VERSION 5.1 (Build 5.3.0.dev0)
  --------------------------------------------------------------

  
  *********************************************************
  NOTE: The summary statistics displayed in this report are
  based on results found at every computational time step,  
  not just on results from each reporting time step.
  *********************************************************
  
  ****************
  Analysis Options
  ****************
  Flow Units ............... CMS
  Process Models:
    Rainfall/Runoff ........ YES
    RDII ................... NO
    Snowmelt ............... NO
    Groundwater ............ NO
    Flow Routing ........... YES
    Ponding Allowed ........ YES
    Water Quality .......... NO
  Infiltration Method ...... HORTON
  Flow Routing Method ...... DYNWAVE
  Surcharge Method ......... EXTRAN
  Starting Date ............ 08/28/2015 08:00:00
  Ending Date .............. 08/28/2015 15:50:00
  Antecedent Dry Days ...... 0.0
  Report Time Step ......... 00:01:00
  Wet Time Step ............ 00:01:00
  Dry Time Step ............ 00:01:00
  Routing Time Step ........ 5.00 sec
  Variable Time Step ....... YES
  Maximum Trials ........... 8
  Number of Threads ........ 1
  Head Tolerance ........... 0.001500 m
  
  
  **************************        Volume         Depth
  Runoff Quantity Continuity     hectare-m            mm
  **************************     ---------       -------
  Total Precipitation ......         0.803         4.455
  Evaporation Loss .........         0.000         0.000
  Infiltration Loss ........         0.000         0.000
  Surface Runoff ...........         0.780         4.329
  Final Storage ............         0.023         0.126
  Continuity Error (%) .....        -0.007
  
  
  **************************        Volume        Volume
  Flow Routing Continuity        hectare-m      10^6 ltr
  **************************     ---------     ---------
  Dry Weather Inflow .......         0.396         3.955
  Wet Weather Inflow .......         0.780         7.800
  Groundwater Inflow .......         0.000         0.000
  RDII Inflow ..............         0.000         0.000
  External Inflow ..........         0.000         0.000
  External Outflow .........         0.457         4.567
  Flooding Loss ............         0.003         0.031
  Evaporation Loss .........         0.000         0.000
  Exfiltration Loss ........         0.000         0.000
  Initial Stored Volume ....         0.000         0.000
  Final Stored Volume ......         0.578         5.777
  Continuity Error (%) .....        11.744
  
  
  *************************
  Highest Continuity Errors
  *************************
  Node T2 (32.89%)
  Node T3 (26.47%)
  Node T6 (25.37%)
  Node T5 (22.72%)
  Node T4 (22.22%)
  
  
  ***************************
  Time-Step Critical Elements
  ***************************
  None
  
  
  ********************************
  Highest Flow Instability Indexes
  ********************************
  All links are stable.
  
  
  *************************
  Routing Time Step Summary
  *************************
  Minimum Time Step           :     4.50 sec
  Average Time Step           :     5.00 sec
  Maximum Time Step           :     5.00 sec
  Percent in Steady State     :     0.00
  Average Iterations per Step :     2.00
  Percent Not Converging      :     0.00
  
  
  ***************************
  Subcatchment Runoff Summary
  ***************************
  
  ------------------------------------------------------------------------------------------------------------------------------
                            Total      Total      Total      Total     Imperv       Perv      Total       Total     Peak  Runoff
                           Precip      Runon       Evap      Infil     Runoff     Runoff     Runoff      Runoff   Runoff   Coeff
  Subcatchment                 mm         mm         mm         mm         mm         mm         mm    10^6 ltr      CMS
  ------------------------------------------------------------------------------------------------------------------------------
  SC01                       4.45       0.00       0.00       0.00       4.37       0.00       4.37        1.44     0.28   0.981
  SC02                       4.45       0.00       0.00       0.00       4.36       0.00       4.36        0.99     0.19   0.980
  SC03                       4.45       0.00       0.00       0.00       4.39       0.00       4.39        0.79     0.16   0.985
  SC04                       4.45       0.00       0.00       0.00       4.27       0.00       4.27        0.29     0.05   0.958
  SC05                       4.45       0.00       0.00       0.00       4.36       0.00       4.36        0.68     0.13   0.980
  SC06                       4.45       0.00       0.00       0.00       4.22       0.00       4.22        1.37     0.24   0.948
  SC07                       4.45       0.00       0.00       0.00       4.27       0.00       4.27        0.20     0.04   0.959
  SC08                       4.45       0.00       0.00       0.00       4.34       0.00       4.34        1.22     0.23   0.974
  SC09                       4.45       0.00       0.00       0.00       4.32       0.00       4.32        0.30     0.06   0.969
  SC010                      4.45       0.00       0.00       0.00       4.34       0.00       4.34        0.51     0.10   0.975
  
  
  ******************
  Node Depth Summary
  ******************
  
  ---------------------------------------------------------------------------------
                                 Average  Maximum  Maximum  Time of Max    Reported
                                   Depth    Depth      HGL   Occurrence   Max Depth
  Node                 Type       Meters   Meters   Meters  days hr:min      Meters
  ---------------------------------------------------------------------------------
  J1                   JUNCTION     0.07     0.13    34.13     0  03:01        0.13
  J3                   JUNCTION     0.08     0.10    18.10     0  06:37        0.10
  CSO7                 JUNCTION     0.09     0.18    34.18     0  03:01        0.18
  J5                   JUNCTION     0.06     0.11    32.11     0  03:01        0.11
  CSO9                 JUNCTION     0.10     0.22    40.22     0  03:01        0.22
  J8                   JUNCTION     0.10     0.19    36.19     0  03:01        0.19
  CSO8                 JUNCTION     0.12     0.31    32.31     0  03:01        0.31
  J10                  JUNCTION     0.09     0.20    29.20     0  03:01        0.20
  J13                  JUNCTION     0.06     0.13    29.13     0  03:01        0.13
  J15                  JUNCTION     0.14     0.24    15.24     0  03:02        0.24
  J16                  JUNCTION     0.06     0.14    30.14     0  03:01        0.14
  CSO10                JUNCTION     0.10     0.27    30.27     0  03:01        0.27
  J12                  JUNCTION     0.12     0.23    26.23     0  03:03        0.23
  J4                   JUNCTION     0.11     0.21    33.21     0  03:03        0.21
  J6                   JUNCTION     0.05     0.06    25.06     0  05:26        0.06
  J2                   JUNCTION     0.06     0.07    25.07     0  04:24        0.07
  J19                  JUNCTION     0.13     0.16     8.16     0  03:31        0.16
  J9                   JUNCTION     0.09     0.11    29.11     0  05:00        0.11
  J14                  JUNCTION     0.08     0.10    20.10     0  07:50        0.10
  J17                  JUNCTION     0.05     0.06    20.06     0  05:08        0.06
  J7                   JUNCTION     0.08     0.16    39.16     0  03:02        0.16
  J11                  JUNCTION     0.09     0.21    31.21     0  03:01        0.21
  J18                  JUNCTION     0.05     0.12    29.12     0  03:01        0.12
  Out_to_WWTP          OUTFALL      0.13     0.16     6.16     0  03:32        0.16
  T5                   STORAGE      2.23     3.33    30.33     0  04:22        3.33
  T4                   STORAGE      1.93     2.96    29.96     0  05:24        2.96
  T6                   STORAGE      3.22     5.00    36.00     0  04:13        5.00
  T3                   STORAGE      2.21     3.92    25.92     0  07:50        3.92
  T2                   STORAGE      1.72     2.54    23.54     0  05:05        2.54
  T1                   STORAGE      2.22     4.15    14.15     0  03:31        4.15
  
  
  *******************
  Node Inflow Summary
  *******************
  
  -------------------------------------------------------------------------------------------------
                                  Maximum  Maximum                  Lateral       Total        Flow
                                  Lateral    Total  Time of Max      Inflow      Inflow     Balance
                                   Inflow   Inflow   Occurrence      Volume      Volume       Error
  Node                 Type           CMS      CMS  days hr:min    10^6 ltr    10^6 ltr     Percent
  -------------------------------------------------------------------------------------------------
  J1                   JUNCTION     0.156    0.156     0  03:01        1.24        1.24       0.049
  J3                   JUNCTION     0.000    0.103     0  06:34           0        2.15       1.178
  CSO7                 JUNCTION     0.048    0.048     0  03:01       0.493       0.493       0.092
  J5                   JUNCTION     0.058    0.104     0  03:01       0.422       0.911       0.186
  CSO9                 JUNCTION     0.064    0.064     0  03:01       0.494       0.494       0.089
  J8                   JUNCTION     0.276    0.337     0  03:01        2.32        2.81       0.190
  CSO8                 JUNCTION     0.242    0.242     0  03:01        1.51        1.51       0.035
  J10                  JUNCTION     0.175    0.411     0  03:01        1.18        2.68       0.202
  J13                  JUNCTION     0.213    0.213     0  03:01        1.46        1.46      -0.208
  J15                  JUNCTION     0.000    0.506     0  03:01           0        5.27       1.149
  J16                  JUNCTION     0.307    0.307     0  03:01           2           2       0.032
  CSO10                JUNCTION     0.103    0.103     0  03:01       0.649       0.649       0.065
  J12                  JUNCTION     0.000    0.465     0  03:01           0        4.21       0.606
  J4                   JUNCTION     0.000    0.048     0  03:01           0       0.493       0.764
  J6                   JUNCTION     0.000    0.022     0  05:24           0       0.438       0.764
  J2                   JUNCTION     0.000    0.032     0  04:22           0       0.684       0.647
  J19                  JUNCTION     0.000    0.246     0  03:31           0        4.58       0.197
  J9                   JUNCTION     0.000    0.075     0  04:13           0        1.56       1.087
  J14                  JUNCTION     0.000    0.053     0  07:50           0        1.04       0.386
  J17                  JUNCTION     0.000    0.024     0  05:05           0       0.505       0.988
  J7                   JUNCTION     0.000    0.063     0  03:01           0       0.494       0.651
  J11                  JUNCTION     0.000    0.242     0  03:01           0        1.51       0.392
  J18                  JUNCTION     0.000    0.103     0  03:01           0       0.649       0.176
  Out_to_WWTP          OUTFALL      0.000    0.246     0  03:32           0        4.57       0.000
  T5                   STORAGE      0.000    0.154     0  03:01           0        1.24      29.404
  T4                   STORAGE      0.000    0.102     0  03:01           0       0.909      28.568
  T6                   STORAGE      0.000    0.332     0  03:01           0         2.8      34.003
  T3                   STORAGE      0.000    0.457     0  03:03           0        4.19      35.999
  T2                   STORAGE      0.000    0.211     0  03:01           0        1.46      49.011
  T1                   STORAGE      0.000    0.492     0  03:02           0        5.21       7.350
  
  
  **********************
  Node Surcharge Summary
  **********************
  
  No nodes were surcharged.
  
  
  *********************
  Node Flooding Summary
  *********************
  
  Flooding refers to all water that overflows a node, whether it ponds or not.
  --------------------------------------------------------------------------
                                                             Total   Maximum
                                 Maximum   Time of Max       Flood    Ponded
                        Hours       Rate    Occurrence      Volume     Depth
  Node                 Flooded       CMS   days hr:min    10^6 ltr    Meters
  --------------------------------------------------------------------------
  T6                      0.78     0.026      0  04:13       0.031     0.000
  
  
  **********************
  Storage Volume Summary
  **********************
  
  --------------------------------------------------------------------------------------------------
                         Average     Avg  Evap Exfil       Maximum     Max    Time of Max    Maximum
                          Volume    Pcnt  Pcnt  Pcnt        Volume    Pcnt     Occurrence    Outflow
  Storage Unit           1000 m3    Full  Loss  Loss       1000 m3    Full    days hr:min        CMS
  --------------------------------------------------------------------------------------------------
  T5                       0.223      45     0     0         0.333      67       0  04:22      0.032
  T4                       0.193      39     0     0         0.296      59       0  05:24      0.022
  T6                       0.386      64     0     0         0.600     100       0  04:13      0.075
  T3                       1.149      44     0     0         2.036      78       0  07:50      0.053
  T2                       0.345      34     0     0         0.508      51       0  05:05      0.024
  T1                       0.311      44     0     0         0.581      83       0  03:31      0.246
  
  
  ***********************
  Outfall Loading Summary
  ***********************
  
  -----------------------------------------------------------
                         Flow       Avg       Max       Total
                         Freq      Flow      Flow      Volume
  Outfall Node           Pcnt       CMS       CMS    10^6 ltr
  -----------------------------------------------------------
  Out_to_WWTP           99.01     0.164     0.246       4.567
  -----------------------------------------------------------
  System                99.01     0.164     0.246       4.567
  
  
  ********************
  Link Flow Summary
  ********************
  
  -----------------------------------------------------------------------------
                                 Maximum  Time of Max   Maximum    Max/    Max/
                                  |Flow|   Occurrence   |Veloc|    Full    Full
  Link                 Type          CMS  days hr:min     m/sec    Flow   Depth
  -----------------------------------------------------------------------------
  C1                   CONDUIT     0.032     0  04:24      1.00    0.01    0.09
  C6                   CONDUIT     0.046     0  03:03      1.23    0.74    0.53
  C2                   CONDUIT     0.022     0  05:26      0.91    0.02    0.14
  C9                   CONDUIT     0.061     0  03:02      1.02    0.21    0.35
  C16                  CONDUIT     0.237     0  03:02      1.42    0.02    0.10
  C3                   CONDUIT     0.053     0  07:50      1.29    0.02    0.10
  C19                  CONDUIT     0.024     0  05:08      0.58    0.01    0.15
  C11                  CONDUIT     0.103     0  06:37      1.38    0.01    0.08
  C20                  CONDUIT     0.304     0  03:01      2.05    0.01    0.09
  C22                  CONDUIT     0.101     0  03:01      1.23    0.05    0.22
  C12                  CONDUIT     0.075     0  05:00      1.09    0.01    0.08
  C17                  CONDUIT     0.405     0  03:01      2.30    0.02    0.11
  C10                  CONDUIT     0.332     0  03:01      1.66    0.03    0.56
  C13                  CONDUIT     0.457     0  03:03      1.45    0.03    0.56
  C18                  CONDUIT     0.211     0  03:01      1.72    0.01    0.53
  C23                  CONDUIT     0.492     0  03:02      1.24    0.05    0.58
  C4                   CONDUIT     0.154     0  03:01      1.98    0.04    0.57
  C7                   CONDUIT     0.102     0  03:01      1.43    0.03    0.55
  C14                  CONDUIT     0.246     0  03:32      2.02    0.01    0.08
  C5                   CONDUIT     0.048     0  03:01      1.22    0.82    0.75
  C8                   CONDUIT     0.063     0  03:01      1.28    0.80    0.60
  C15                  CONDUIT     0.242     0  03:01      2.53    0.77    0.57
  C21                  CONDUIT     0.103     0  03:01      1.63    0.59    0.43
  V4                   ORIFICE     0.022     0  05:24                      0.35
  V5                   ORIFICE     0.032     0  04:22                      1.00
  V1                   ORIFICE     0.246     0  03:31                      1.00
  V6                   ORIFICE     0.075     0  04:13                      0.43
  V3                   ORIFICE     0.053     0  07:50                      0.65
  V2                   ORIFICE     0.024     0  05:05                      0.24
  
  
  ***************************
  Flow Classification Summary
  ***************************
  
  -------------------------------------------------------------------------------------
                      Adjusted    ---------- Fraction of Time in Flow Class ---------- 
                       /Actual         Up    Down  Sub   Sup   Up    Down  Norm  Inlet 
  Conduit               Length    Dry  Dry   Dry   Crit  Crit  Crit  Crit  Ltd   Ctrl  
  -------------------------------------------------------------------------------------
  C1                      1.00   0.00  0.00  0.00  0.00  1.00  0.00  0.00  0.93  0.00
  C6                      1.00   0.00  0.00  0.00  0.01  0.99  0.00  0.00  0.00  0.00
  C2                      1.00   0.00  0.00  0.00  0.17  0.83  0.00  0.00  0.97  0.00
  C9                      1.00   0.00  0.00  0.00  1.00  0.00  0.00  0.00  1.00  0.00
  C16                     1.00   0.00  0.00  0.00  0.60  0.40  0.00  0.00  0.49  0.00
  C3                      1.00   0.00  0.00  0.00  0.04  0.95  0.00  0.00  0.83  0.00
  C19                     1.00   0.00  0.00  0.00  1.00  0.00  0.00  0.00  1.00  0.00
  C11                     1.00   0.00  0.00  0.00  0.34  0.65  0.00  0.00  1.00  0.00
  C20                     1.00   0.00  0.00  0.00  0.53  0.47  0.00  0.00  0.98  0.00
  C22                     1.00   0.00  0.00  0.00  0.80  0.20  0.00  0.00  1.00  0.00
  C12                     1.00   0.00  0.00  0.00  0.48  0.52  0.00  0.00  1.00  0.00
  C17                     1.00   0.00  0.00  0.00  0.40  0.60  0.00  0.00  0.97  0.00
  C10                     1.00   0.00  0.00  0.00  0.96  0.04  0.00  0.00  0.97  0.00
  C13                     1.00   0.00  0.00  0.00  0.87  0.13  0.00  0.00  0.90  0.00
  C18                     1.00   0.00  0.00  0.00  0.94  0.06  0.00  0.00  0.97  0.00
  C23                     1.00   0.00  0.00  0.00  0.88  0.12  0.00  0.00  0.94  0.00
  C4                      1.00   0.00  0.00  0.00  0.96  0.04  0.00  0.00  0.98  0.00
  C7                      1.00   0.00  0.00  0.00  0.95  0.05  0.00  0.00  0.97  0.00
  C14                     1.00   0.00  0.00  0.00  0.00  0.99  0.00  0.00  0.37  0.00
  C5                      1.00   0.00  0.00  0.00  0.89  0.11  0.00  0.00  0.98  0.00
  C8                      1.00   0.00  0.00  0.00  0.00  1.00  0.00  0.00  0.00  0.00
  C15                     1.00   0.00  0.00  0.00  0.00  1.00  0.00  0.00  0.00  0.00
  C21                     1.00   0.00  0.00  0.00  0.00  1.00  0.00  0.00  0.00  0.00
  
  
  *************************
  Conduit Surcharge Summary
  *************************
  
  ----------------------------------------------------------------------------
                                                           Hours        Hours 
                         --------- Hours Full --------   Above Full   Capacity
  Conduit                Both Ends  Upstream  Dnstream   Normal Flow   Limited
  ----------------------------------------------------------------------------
  C10                         0.01      0.01      5.50      0.01         0.01
  C13                         0.01      0.01      4.78      0.01         0.01
  C18                         0.01      0.01      4.77      0.01         0.01
  C23                         0.01      0.01      5.55      0.01         0.01
  C4                          0.01      0.01      5.75      0.01         0.01
  C7                          0.01      0.01      5.45      0.01         0.01
  

  Analysis begun on:  Fri Sep  3 16:27:59 2021
  Analysis ended on:  Fri Sep  3 16:27:59 2021
  Total elapsed time: < 1 sec