
  EPA STORM WATER MANAGEMENT MODEL - VERSION 5.1 (Build 5.3.0.dev0)
  --------------------------------------------------------------

  
  *********************************************************
  NOTE: The summary statistics displayed in this report are
  based on results found at every computational time step,  
  not just on results from each reporting time step.
  *********************************************************
  
  ****************
  Analysis Options
  ****************
  Flow Units ............... CMS
  Process Models:
    Rainfall/Runoff ........ YES
    RDII ................... NO
    Snowmelt ............... NO
    Groundwater ............ NO
    Flow Routing ........... YES
    Ponding Allowed ........ YES
    Water Quality .......... NO
  Infiltration Method ...... HORTON
  Flow Routing Method ...... DYNWAVE
  Surcharge Method ......... EXTRAN
  Starting Date ............ 08/28/2015 08:00:00
  Ending Date .............. 08/28/2015 15:50:00
  Antecedent Dry Days ...... 0.0
  Report Time Step ......... 00:01:00
  Wet Time Step ............ 00:01:00
  Dry Time Step ............ 00:01:00
  Routing Time Step ........ 5.00 sec
  Variable Time Step ....... YES
  Maximum Trials ........... 8
  Number of Threads ........ 1
  Head Tolerance ........... 0.001500 m
  
  
  **************************        Volume         Depth
  Runoff Quantity Continuity     hectare-m            mm
  **************************     ---------       -------
  Total Precipitation ......         1.225         6.799
  Evaporation Loss .........         0.000         0.000
  Infiltration Loss ........         0.000         0.000
  Surface Runoff ...........         1.202         6.670
  Final Storage ............         0.023         0.130
  Continuity Error (%) .....        -0.007
  
  
  **************************        Volume        Volume
  Flow Routing Continuity        hectare-m      10^6 ltr
  **************************     ---------     ---------
  Dry Weather Inflow .......         0.396         3.955
  Wet Weather Inflow .......         1.202        12.020
  Groundwater Inflow .......         0.000         0.000
  RDII Inflow ..............         0.000         0.000
  External Inflow ..........         0.000         0.000
  External Outflow .........         0.530         5.297
  Flooding Loss ............         0.147         1.469
  Evaporation Loss .........         0.000         0.000
  Exfiltration Loss ........         0.000         0.000
  Initial Stored Volume ....         0.000         0.000
  Final Stored Volume ......         0.714         7.144
  Continuity Error (%) .....        12.925
  
  
  *************************
  Highest Continuity Errors
  *************************
  Node T2 (34.16%)
  Node T3 (26.38%)
  Node T5 (24.54%)
  Node T4 (23.59%)
  Node T6 (19.24%)
  
  
  ***************************
  Time-Step Critical Elements
  ***************************
  None
  
  
  ********************************
  Highest Flow Instability Indexes
  ********************************
  Link C13 (1)
  
  
  *************************
  Routing Time Step Summary
  *************************
  Minimum Time Step           :     4.50 sec
  Average Time Step           :     5.00 sec
  Maximum Time Step           :     5.00 sec
  Percent in Steady State     :     0.00
  Average Iterations per Step :     2.08
  Percent Not Converging      :     0.73
  
  
  ***************************
  Subcatchment Runoff Summary
  ***************************
  
  ------------------------------------------------------------------------------------------------------------------------------
                            Total      Total      Total      Total     Imperv       Perv      Total       Total     Peak  Runoff
                           Precip      Runon       Evap      Infil     Runoff     Runoff     Runoff      Runoff   Runoff   Coeff
  Subcatchment                 mm         mm         mm         mm         mm         mm         mm    10^6 ltr      CMS
  ------------------------------------------------------------------------------------------------------------------------------
  SC01                       6.80       0.00       0.00       0.00       6.71       0.00       6.71        2.22     0.44   0.987
  SC02                       6.80       0.00       0.00       0.00       6.71       0.00       6.71        1.53     0.30   0.987
  SC03                       6.80       0.00       0.00       0.00       6.73       0.00       6.73        1.21     0.25   0.990
  SC04                       6.80       0.00       0.00       0.00       6.61       0.00       6.61        0.46     0.08   0.972
  SC05                       6.80       0.00       0.00       0.00       6.71       0.00       6.71        1.05     0.21   0.987
  SC06                       6.80       0.00       0.00       0.00       6.56       0.00       6.56        2.13     0.38   0.964
  SC07                       6.80       0.00       0.00       0.00       6.61       0.00       6.61        0.31     0.06   0.972
  SC08                       6.80       0.00       0.00       0.00       6.68       0.00       6.68        1.87     0.36   0.983
  SC09                       6.80       0.00       0.00       0.00       6.66       0.00       6.66        0.46     0.09   0.979
  SC010                      6.80       0.00       0.00       0.00       6.69       0.00       6.69        0.79     0.15   0.984
  
  
  ******************
  Node Depth Summary
  ******************
  
  ---------------------------------------------------------------------------------
                                 Average  Maximum  Maximum  Time of Max    Reported
                                   Depth    Depth      HGL   Occurrence   Max Depth
  Node                 Type       Meters   Meters   Meters  days hr:min      Meters
  ---------------------------------------------------------------------------------
  J1                   JUNCTION     0.07     0.16    34.16     0  03:01        0.16
  J3                   JUNCTION     0.09     0.11    18.11     0  05:07        0.11
  CSO7                 JUNCTION     0.12     1.20    35.20     0  02:58        1.19
  J5                   JUNCTION     0.07     0.13    32.13     0  03:01        0.13
  CSO9                 JUNCTION     0.13     0.84    40.84     0  03:01        0.84
  J8                   JUNCTION     0.11     0.23    36.23     0  03:01        0.23
  CSO8                 JUNCTION     0.15     0.95    32.95     0  03:01        0.95
  J10                  JUNCTION     0.10     0.24    29.24     0  03:01        0.24
  J13                  JUNCTION     0.06     0.15    29.15     0  03:01        0.15
  J15                  JUNCTION     0.16     0.29    15.29     0  03:02        0.29
  J16                  JUNCTION     0.07     0.17    30.17     0  03:01        0.17
  CSO10                JUNCTION     0.12     0.36    30.36     0  03:01        0.36
  J12                  JUNCTION     0.30     0.64    26.64     0  07:46        0.64
  J4                   JUNCTION     0.13     1.06    34.06     0  02:58        0.75
  J6                   JUNCTION     0.06     0.07    25.07     0  05:02        0.07
  J2                   JUNCTION     0.06     0.08    25.08     0  03:56        0.08
  J19                  JUNCTION     0.14     0.17     8.17     0  02:54        0.17
  J9                   JUNCTION     0.09     0.11    29.11     0  04:15        0.11
  J14                  JUNCTION     0.08     0.10    20.10     0  07:50        0.10
  J17                  JUNCTION     0.06     0.07    20.07     0  04:40        0.07
  J7                   JUNCTION     0.09     0.19    39.19     0  03:01        0.19
  J11                  JUNCTION     0.10     0.26    31.26     0  03:01        0.26
  J18                  JUNCTION     0.06     0.14    29.14     0  03:01        0.14
  Out_to_WWTP          OUTFALL      0.14     0.17     6.17     0  03:47        0.17
  T5                   STORAGE      3.24     4.91    31.91     0  03:54        4.91
  T4                   STORAGE      2.79     4.26    31.26     0  05:01        4.26
  T6                   STORAGE      3.48     5.00    36.00     0  02:55        5.00
  T3                   STORAGE      2.94     4.65    26.65     0  07:50        4.65
  T2                   STORAGE      2.58     3.80    24.80     0  04:38        3.80
  T1                   STORAGE      2.96     5.00    15.00     0  02:52        5.00
  
  
  *******************
  Node Inflow Summary
  *******************
  
  -------------------------------------------------------------------------------------------------
                                  Maximum  Maximum                  Lateral       Total        Flow
                                  Lateral    Total  Time of Max      Inflow      Inflow     Balance
                                   Inflow   Inflow   Occurrence      Volume      Volume       Error
  Node                 Type           CMS      CMS  days hr:min    10^6 ltr    10^6 ltr     Percent
  -------------------------------------------------------------------------------------------------
  J1                   JUNCTION     0.230    0.230     0  03:01        1.61        1.61       0.026
  J3                   JUNCTION     0.000    0.120     0  05:06           0        2.54       1.101
  CSO7                 JUNCTION     0.070    0.070     0  03:01       0.604       0.604       0.076
  J5                   JUNCTION     0.090    0.160     0  03:01       0.583        1.18       0.137
  CSO9                 JUNCTION     0.096    0.096     0  03:01       0.656       0.656       0.073
  J8                   JUNCTION     0.423    0.516     0  03:01        3.08        3.73       0.136
  CSO8                 JUNCTION     0.374    0.374     0  03:01        2.16        2.16       0.025
  J10                  JUNCTION     0.263    0.629     0  03:01         1.6        3.75       0.117
  J13                  JUNCTION     0.322    0.322     0  03:01        1.99        1.99      -0.194
  J15                  JUNCTION     0.000    0.743     0  03:01           0        6.81       0.970
  J16                  JUNCTION     0.465    0.465     0  03:01        2.77        2.77       0.005
  CSO10                JUNCTION     0.159    0.159     0  03:01       0.925       0.925       0.044
  J12                  JUNCTION     0.000    0.695     0  03:01           0        5.37       9.116
  J4                   JUNCTION     0.000    0.070     0  03:01           0       0.604       0.567
  J6                   JUNCTION     0.000    0.026     0  05:01           0       0.525       0.721
  J2                   JUNCTION     0.000    0.039     0  03:54           0       0.819       0.618
  J19                  JUNCTION     0.000    0.271     0  02:52           0        5.31       0.190
  J9                   JUNCTION     0.000    0.075     0  02:55           0        1.63       1.044
  J14                  JUNCTION     0.000    0.058     0  07:50           0        1.21       0.355
  J17                  JUNCTION     0.000    0.029     0  04:38           0       0.614       0.947
  J7                   JUNCTION     0.000    0.096     0  03:01           0       0.655       0.484
  J11                  JUNCTION     0.000    0.374     0  03:01           0        2.16       0.282
  J18                  JUNCTION     0.000    0.158     0  03:01           0       0.924       0.108
  Out_to_WWTP          OUTFALL      0.000    0.271     0  02:54           0         5.3       0.000
  T5                   STORAGE      0.000    0.229     0  03:01           0        1.61      32.524
  T4                   STORAGE      0.000    0.158     0  03:01           0        1.18      30.878
  T6                   STORAGE      0.000    0.509     0  03:01           0        3.72      23.817
  T3                   STORAGE      0.000    0.683     0  03:02           0        4.92      35.824
  T2                   STORAGE      0.000    0.319     0  03:01           0           2      51.878
  T1                   STORAGE      0.000    0.724     0  03:02           0        6.74       7.356
  
  
  **********************
  Node Surcharge Summary
  **********************
  
  Surcharging occurs when water rises above the top of the highest conduit.
  ---------------------------------------------------------------------
                                               Max. Height   Min. Depth
                                   Hours       Above Crown    Below Rim
  Node                 Type      Surcharged         Meters       Meters
  ---------------------------------------------------------------------
  CSO7                 JUNCTION        0.24          0.945        0.000
  CSO9                 JUNCTION        0.33          0.524        1.158
  CSO8                 JUNCTION        0.21          0.495        1.052
  J4                   JUNCTION        0.19          0.763        0.937
  
  
  *********************
  Node Flooding Summary
  *********************
  
  Flooding refers to all water that overflows a node, whether it ponds or not.
  --------------------------------------------------------------------------
                                                             Total   Maximum
                                 Maximum   Time of Max       Flood    Ponded
                        Hours       Rate    Occurrence      Volume     Depth
  Node                 Flooded       CMS   days hr:min    10^6 ltr    Meters
  --------------------------------------------------------------------------
  CSO7                    0.01     0.002      0  02:58       0.000     0.000
  T6                      2.13     0.434      0  03:01       0.868     0.000
  T1                      0.76     0.453      0  03:02       0.601     0.000
  
  
  **********************
  Storage Volume Summary
  **********************
  
  --------------------------------------------------------------------------------------------------
                         Average     Avg  Evap Exfil       Maximum     Max    Time of Max    Maximum
                          Volume    Pcnt  Pcnt  Pcnt        Volume    Pcnt     Occurrence    Outflow
  Storage Unit           1000 m3    Full  Loss  Loss       1000 m3    Full    days hr:min        CMS
  --------------------------------------------------------------------------------------------------
  T5                       0.324      65     0     0         0.491      98       0  03:54      0.039
  T4                       0.279      56     0     0         0.426      85       0  05:01      0.026
  T6                       0.418      70     0     0         0.600     100       0  02:55      0.075
  T3                       1.531      59     0     0         2.416      93       0  07:50      0.058
  T2                       0.515      52     0     0         0.759      76       0  04:38      0.029
  T1                       0.414      59     0     0         0.700     100       0  02:52      0.271
  
  
  ***********************
  Outfall Loading Summary
  ***********************
  
  -----------------------------------------------------------
                         Flow       Avg       Max       Total
                         Freq      Flow      Flow      Volume
  Outfall Node           Pcnt       CMS       CMS    10^6 ltr
  -----------------------------------------------------------
  Out_to_WWTP           99.01     0.190     0.271       5.297
  -----------------------------------------------------------
  System                99.01     0.190     0.271       5.297
  
  
  ********************
  Link Flow Summary
  ********************
  
  -----------------------------------------------------------------------------
                                 Maximum  Time of Max   Maximum    Max/    Max/
                                  |Flow|   Occurrence   |Veloc|    Full    Full
  Link                 Type          CMS  days hr:min     m/sec    Flow   Depth
  -----------------------------------------------------------------------------
  C1                   CONDUIT     0.039     0  03:56      1.05    0.01    0.09
  C6                   CONDUIT     0.070     0  03:01      1.29    1.11    0.72
  C2                   CONDUIT     0.026     0  05:02      0.97    0.03    0.15
  C9                   CONDUIT     0.093     0  03:01      1.16    0.32    0.43
  C16                  CONDUIT     0.367     0  03:01      1.62    0.04    0.13
  C3                   CONDUIT     0.058     0  07:50      1.30    0.02    0.11
  C19                  CONDUIT     0.029     0  04:40      0.63    0.01    0.18
  C11                  CONDUIT     0.120     0  05:07      1.44    0.01    0.10
  C20                  CONDUIT     0.461     0  03:01      2.34    0.01    0.11
  C22                  CONDUIT     0.156     0  03:01      1.43    0.07    0.27
  C12                  CONDUIT     0.075     0  04:15      0.90    0.01    0.19
  C17                  CONDUIT     0.620     0  03:01      2.63    0.03    0.17
  C10                  CONDUIT     0.509     0  03:01      1.66    0.05    0.58
  C13                  CONDUIT     0.683     0  03:02      1.45    0.04    0.66
  C18                  CONDUIT     0.319     0  03:01      1.72    0.01    0.54
  C23                  CONDUIT     0.724     0  03:02      1.24    0.08    0.60
  C4                   CONDUIT     0.229     0  03:01      1.98    0.06    0.58
  C7                   CONDUIT     0.158     0  03:01      1.43    0.04    0.57
  C14                  CONDUIT     0.271     0  02:54      2.08    0.02    0.09
  C5                   CONDUIT     0.070     0  03:01      1.36    1.20    1.00
  C8                   CONDUIT     0.096     0  03:01      1.40    1.21    0.80
  C15                  CONDUIT     0.374     0  03:01      2.75    1.19    0.79
  C21                  CONDUIT     0.158     0  03:01      1.76    0.90    0.57
  V4                   ORIFICE     0.026     0  05:01                      0.35
  V5                   ORIFICE     0.039     0  03:54                      1.00
  V1                   ORIFICE     0.271     0  02:52                      1.00
  V6                   ORIFICE     0.075     0  02:55                      0.43
  V3                   ORIFICE     0.058     0  07:50                      0.65
  V2                   ORIFICE     0.029     0  04:38                      0.24
  
  
  ***************************
  Flow Classification Summary
  ***************************
  
  -------------------------------------------------------------------------------------
                      Adjusted    ---------- Fraction of Time in Flow Class ---------- 
                       /Actual         Up    Down  Sub   Sup   Up    Down  Norm  Inlet 
  Conduit               Length    Dry  Dry   Dry   Crit  Crit  Crit  Crit  Ltd   Ctrl  
  -------------------------------------------------------------------------------------
  C1                      1.00   0.00  0.00  0.00  0.00  1.00  0.00  0.00  0.93  0.00
  C6                      1.00   0.00  0.00  0.00  0.06  0.94  0.00  0.00  0.00  0.00
  C2                      1.00   0.00  0.00  0.00  0.17  0.83  0.00  0.00  0.97  0.00
  C9                      1.00   0.00  0.00  0.00  1.00  0.00  0.00  0.00  1.00  0.00
  C16                     1.00   0.00  0.00  0.00  0.57  0.43  0.00  0.00  0.45  0.00
  C3                      1.00   0.00  0.00  0.00  0.04  0.95  0.00  0.00  0.83  0.00
  C19                     1.00   0.00  0.00  0.00  1.00  0.00  0.00  0.00  1.00  0.00
  C11                     1.00   0.00  0.00  0.00  0.35  0.64  0.00  0.00  1.00  0.00
  C20                     1.00   0.00  0.00  0.00  0.53  0.47  0.00  0.00  0.98  0.00
  C22                     1.00   0.00  0.00  0.00  0.74  0.26  0.00  0.00  1.00  0.00
  C12                     1.00   0.00  0.00  0.00  1.00  0.00  0.00  0.00  1.00  0.00
  C17                     1.00   0.00  0.00  0.00  0.50  0.50  0.00  0.00  0.95  0.00
  C10                     1.00   0.00  0.00  0.00  0.96  0.04  0.00  0.00  0.97  0.00
  C13                     1.00   0.00  0.00  0.00  0.83  0.17  0.00  0.00  0.39  0.00
  C18                     1.00   0.00  0.00  0.00  0.94  0.06  0.00  0.00  0.97  0.00
  C23                     1.00   0.00  0.00  0.00  0.88  0.12  0.00  0.00  0.94  0.00
  C4                      1.00   0.00  0.00  0.00  0.96  0.04  0.00  0.00  0.98  0.00
  C7                      1.00   0.00  0.00  0.00  0.95  0.05  0.00  0.00  0.97  0.00
  C14                     1.00   0.00  0.00  0.00  0.00  0.99  0.00  0.00  0.33  0.00
  C5                      1.00   0.00  0.00  0.00  0.90  0.10  0.00  0.00  0.94  0.00
  C8                      1.00   0.00  0.00  0.00  0.11  0.89  0.00  0.00  0.00  0.00
  C15                     1.00   0.00  0.00  0.00  0.00  1.00  0.00  0.00  0.00  0.00
  C21                     1.00   0.00  0.00  0.00  0.00  1.00  0.00  0.00  0.00  0.00
  
  
  *************************
  Conduit Surcharge Summary
  *************************
  
  ----------------------------------------------------------------------------
                                                           Hours        Hours 
                         --------- Hours Full --------   Above Full   Capacity
  Conduit                Both Ends  Upstream  Dnstream   Normal Flow   Limited
  ----------------------------------------------------------------------------
  C6                          0.01      0.19      0.01      0.09         0.01
  C10                         0.01      0.01      5.78      0.01         0.01
  C13                         0.01      0.01      5.21      0.01         0.01
  C18                         0.01      0.01      5.25      0.01         0.01
  C23                         0.01      0.01      5.87      0.01         0.01
  C4                          0.01      0.01      6.00      0.01         0.01
  C7                          0.01      0.01      5.74      0.01         0.01
  C5                          0.24      0.24      0.41      0.38         0.21
  C8                          0.01      0.33      0.01      0.35         0.01
  C15                         0.01      0.21      0.01      0.35         0.01
  

  Analysis begun on:  Fri Sep  3 16:33:19 2021
  Analysis ended on:  Fri Sep  3 16:33:19 2021
  Total elapsed time: < 1 sec