
  EPA STORM WATER MANAGEMENT MODEL - VERSION 5.1 (Build 5.3.0.dev0)
  --------------------------------------------------------------

  
  *********************************************************
  NOTE: The summary statistics displayed in this report are
  based on results found at every computational time step,  
  not just on results from each reporting time step.
  *********************************************************
  
  ****************
  Analysis Options
  ****************
  Flow Units ............... CMS
  Process Models:
    Rainfall/Runoff ........ YES
    RDII ................... NO
    Snowmelt ............... NO
    Groundwater ............ NO
    Flow Routing ........... YES
    Ponding Allowed ........ YES
    Water Quality .......... NO
  Infiltration Method ...... HORTON
  Flow Routing Method ...... DYNWAVE
  Surcharge Method ......... EXTRAN
  Starting Date ............ 08/28/2015 08:00:00
  Ending Date .............. 08/28/2015 15:50:00
  Antecedent Dry Days ...... 0.0
  Report Time Step ......... 00:01:00
  Wet Time Step ............ 00:01:00
  Dry Time Step ............ 00:01:00
  Routing Time Step ........ 5.00 sec
  Variable Time Step ....... YES
  Maximum Trials ........... 8
  Number of Threads ........ 1
  Head Tolerance ........... 0.001500 m
  
  
  **************************        Volume         Depth
  Runoff Quantity Continuity     hectare-m            mm
  **************************     ---------       -------
  Total Precipitation ......         1.202         6.671
  Evaporation Loss .........         0.000         0.000
  Infiltration Loss ........         0.000         0.000
  Surface Runoff ...........         1.179         6.544
  Final Storage ............         0.023         0.127
  Continuity Error (%) .....        -0.006
  
  
  **************************        Volume        Volume
  Flow Routing Continuity        hectare-m      10^6 ltr
  **************************     ---------     ---------
  Dry Weather Inflow .......         0.396         3.955
  Wet Weather Inflow .......         1.179        11.793
  Groundwater Inflow .......         0.000         0.000
  RDII Inflow ..............         0.000         0.000
  External Inflow ..........         0.000         0.000
  External Outflow .........         0.524         5.242
  Flooding Loss ............         0.141         1.414
  Evaporation Loss .........         0.000         0.000
  Exfiltration Loss ........         0.000         0.000
  Initial Stored Volume ....         0.000         0.000
  Final Stored Volume ......         0.708         7.076
  Continuity Error (%) .....        12.805
  
  
  *************************
  Highest Continuity Errors
  *************************
  Node T2 (34.04%)
  Node T3 (26.53%)
  Node T5 (24.34%)
  Node T4 (23.21%)
  Node T6 (19.33%)
  
  
  ***************************
  Time-Step Critical Elements
  ***************************
  None
  
  
  ********************************
  Highest Flow Instability Indexes
  ********************************
  Link C13 (1)
  
  
  *************************
  Routing Time Step Summary
  *************************
  Minimum Time Step           :     4.50 sec
  Average Time Step           :     5.00 sec
  Maximum Time Step           :     5.00 sec
  Percent in Steady State     :     0.00
  Average Iterations per Step :     2.09
  Percent Not Converging      :     0.20
  
  
  ***************************
  Subcatchment Runoff Summary
  ***************************
  
  ------------------------------------------------------------------------------------------------------------------------------
                            Total      Total      Total      Total     Imperv       Perv      Total       Total     Peak  Runoff
                           Precip      Runon       Evap      Infil     Runoff     Runoff     Runoff      Runoff   Runoff   Coeff
  Subcatchment                 mm         mm         mm         mm         mm         mm         mm    10^6 ltr      CMS
  ------------------------------------------------------------------------------------------------------------------------------
  SC01                       6.67       0.00       0.00       0.00       6.59       0.00       6.59        2.17     0.51   0.987
  SC02                       6.67       0.00       0.00       0.00       6.58       0.00       6.58        1.50     0.35   0.987
  SC03                       6.67       0.00       0.00       0.00       6.60       0.00       6.60        1.19     0.30   0.990
  SC04                       6.67       0.00       0.00       0.00       6.48       0.00       6.48        0.45     0.09   0.972
  SC05                       6.67       0.00       0.00       0.00       6.58       0.00       6.58        1.03     0.24   0.986
  SC06                       6.67       0.00       0.00       0.00       6.43       0.00       6.43        2.09     0.38   0.964
  SC07                       6.67       0.00       0.00       0.00       6.48       0.00       6.48        0.31     0.06   0.972
  SC08                       6.67       0.00       0.00       0.00       6.56       0.00       6.56        1.84     0.40   0.983
  SC09                       6.67       0.00       0.00       0.00       6.53       0.00       6.53        0.45     0.09   0.979
  SC010                      6.67       0.00       0.00       0.00       6.56       0.00       6.56        0.77     0.17   0.983
  
  
  ******************
  Node Depth Summary
  ******************
  
  ---------------------------------------------------------------------------------
                                 Average  Maximum  Maximum  Time of Max    Reported
                                   Depth    Depth      HGL   Occurrence   Max Depth
  Node                 Type       Meters   Meters   Meters  days hr:min      Meters
  ---------------------------------------------------------------------------------
  J1                   JUNCTION     0.07     0.17    34.17     0  02:20        0.17
  J3                   JUNCTION     0.09     0.11    18.11     0  05:06        0.11
  CSO7                 JUNCTION     0.15     1.20    35.20     0  02:21        1.20
  J5                   JUNCTION     0.06     0.14    32.14     0  02:26        0.14
  CSO9                 JUNCTION     0.15     1.04    41.04     0  02:22        1.04
  J8                   JUNCTION     0.11     0.24    36.24     0  02:27        0.24
  CSO8                 JUNCTION     0.17     1.30    33.30     0  02:21        1.30
  J10                  JUNCTION     0.09     0.26    29.26     0  02:22        0.26
  J13                  JUNCTION     0.06     0.16    29.16     0  02:20        0.16
  J15                  JUNCTION     0.15     0.30    15.30     0  02:25        0.30
  J16                  JUNCTION     0.07     0.18    30.18     0  02:20        0.18
  CSO10                JUNCTION     0.12     0.41    30.41     0  02:22        0.41
  J12                  JUNCTION     0.30     0.62    26.62     0  07:45        0.62
  J4                   JUNCTION     0.15     1.20    34.20     0  02:21        0.79
  J6                   JUNCTION     0.06     0.07    25.07     0  05:00        0.07
  J2                   JUNCTION     0.06     0.08    25.08     0  03:49        0.08
  J19                  JUNCTION     0.14     0.17     8.17     0  02:42        0.17
  J9                   JUNCTION     0.09     0.11    29.11     0  04:06        0.11
  J14                  JUNCTION     0.08     0.10    20.10     0  07:50        0.10
  J17                  JUNCTION     0.06     0.07    20.07     0  04:35        0.07
  J7                   JUNCTION     0.08     0.20    39.20     0  02:25        0.20
  J11                  JUNCTION     0.10     0.27    31.27     0  02:23        0.27
  J18                  JUNCTION     0.05     0.15    29.15     0  02:23        0.15
  Out_to_WWTP          OUTFALL      0.13     0.17     6.17     0  03:40        0.17
  T5                   STORAGE      3.22     4.84    31.84     0  03:47        4.84
  T4                   STORAGE      2.74     4.14    31.14     0  04:59        4.14
  T6                   STORAGE      3.49     5.00    36.00     0  02:47        5.00
  T3                   STORAGE      2.97     4.63    26.63     0  07:49        4.63
  T2                   STORAGE      2.56     3.73    24.73     0  04:33        3.73
  T1                   STORAGE      2.93     5.00    15.00     0  02:41        5.00
  
  
  *******************
  Node Inflow Summary
  *******************
  
  -------------------------------------------------------------------------------------------------
                                  Maximum  Maximum                  Lateral       Total        Flow
                                  Lateral    Total  Time of Max      Inflow      Inflow     Balance
                                   Inflow   Inflow   Occurrence      Volume      Volume       Error
  Node                 Type           CMS      CMS  days hr:min    10^6 ltr    10^6 ltr     Percent
  -------------------------------------------------------------------------------------------------
  J1                   JUNCTION     0.259    0.259     0  02:20        1.59        1.59       0.033
  J3                   JUNCTION     0.000    0.120     0  05:05           0         2.5       1.117
  CSO7                 JUNCTION     0.071    0.071     0  02:25       0.598       0.598       0.072
  J5                   JUNCTION     0.092    0.162     0  02:25       0.575        1.17       0.136
  CSO9                 JUNCTION     0.102    0.102     0  02:22       0.647       0.647       0.048
  J8                   JUNCTION     0.417    0.518     0  02:27        3.04        3.68       0.141
  CSO8                 JUNCTION     0.414    0.414     0  02:21        2.13        2.13       0.017
  J10                  JUNCTION     0.312    0.714     0  02:20        1.57         3.7       0.121
  J13                  JUNCTION     0.366    0.366     0  02:20        1.96        1.96      -0.204
  J15                  JUNCTION     0.000    0.794     0  02:21           0        6.72       0.980
  J16                  JUNCTION     0.535    0.535     0  02:19        2.73        2.73       0.005
  CSO10                JUNCTION     0.176    0.176     0  02:21        0.91        0.91       0.046
  J12                  JUNCTION     0.000    0.763     0  02:22           0        5.31       8.925
  J4                   JUNCTION     0.000    0.070     0  02:26           0       0.598       0.554
  J6                   JUNCTION     0.000    0.026     0  04:59           0        0.53       0.698
  J2                   JUNCTION     0.000    0.039     0  03:47           0       0.816       0.613
  J19                  JUNCTION     0.000    0.271     0  02:41           0        5.25       0.190
  J9                   JUNCTION     0.000    0.075     0  02:47           0        1.63       1.051
  J14                  JUNCTION     0.000    0.058     0  07:49           0        1.17       0.366
  J17                  JUNCTION     0.000    0.029     0  04:33           0       0.611       0.949
  J7                   JUNCTION     0.000    0.102     0  02:22           0       0.647       0.489
  J11                  JUNCTION     0.000    0.414     0  02:21           0        2.13       0.286
  J18                  JUNCTION     0.000    0.176     0  02:22           0       0.909       0.107
  Out_to_WWTP          OUTFALL      0.000    0.271     0  02:43           0        5.24       0.000
  T5                   STORAGE      0.000    0.259     0  02:20           0        1.59      32.170
  T4                   STORAGE      0.000    0.162     0  02:26           0        1.17      30.224
  T6                   STORAGE      0.000    0.517     0  02:28           0        3.67      23.966
  T3                   STORAGE      0.000    0.756     0  02:25           0        4.87      36.118
  T2                   STORAGE      0.000    0.366     0  02:20           0        1.97      51.616
  T1                   STORAGE      0.000    0.782     0  02:25           0        6.65       7.277
  
  
  **********************
  Node Surcharge Summary
  **********************
  
  Surcharging occurs when water rises above the top of the highest conduit.
  ---------------------------------------------------------------------
                                               Max. Height   Min. Depth
                                   Hours       Above Crown    Below Rim
  Node                 Type      Surcharged         Meters       Meters
  ---------------------------------------------------------------------
  CSO7                 JUNCTION        0.60          0.945        0.000
  CSO9                 JUNCTION        0.59          0.718        0.964
  CSO8                 JUNCTION        0.52          0.844        0.703
  J4                   JUNCTION        0.58          0.897        0.803
  
  
  *********************
  Node Flooding Summary
  *********************
  
  Flooding refers to all water that overflows a node, whether it ponds or not.
  --------------------------------------------------------------------------
                                                             Total   Maximum
                                 Maximum   Time of Max       Flood    Ponded
                        Hours       Rate    Occurrence      Volume     Depth
  Node                 Flooded       CMS   days hr:min    10^6 ltr    Meters
  --------------------------------------------------------------------------
  CSO7                    0.08     0.004      0  02:21       0.000     0.000
  T6                      2.23     0.377      0  02:47       0.830     0.000
  T1                      0.83     0.399      0  02:41       0.583     0.000
  
  
  **********************
  Storage Volume Summary
  **********************
  
  --------------------------------------------------------------------------------------------------
                         Average     Avg  Evap Exfil       Maximum     Max    Time of Max    Maximum
                          Volume    Pcnt  Pcnt  Pcnt        Volume    Pcnt     Occurrence    Outflow
  Storage Unit           1000 m3    Full  Loss  Loss       1000 m3    Full    days hr:min        CMS
  --------------------------------------------------------------------------------------------------
  T5                       0.322      64     0     0         0.484      97       0  03:47      0.039
  T4                       0.274      55     0     0         0.414      83       0  04:59      0.026
  T6                       0.418      70     0     0         0.600     100       0  02:47      0.075
  T3                       1.543      59     0     0         2.407      93       0  07:49      0.058
  T2                       0.511      51     0     0         0.746      75       0  04:33      0.029
  T1                       0.410      59     0     0         0.700     100       0  02:41      0.271
  
  
  ***********************
  Outfall Loading Summary
  ***********************
  
  -----------------------------------------------------------
                         Flow       Avg       Max       Total
                         Freq      Flow      Flow      Volume
  Outfall Node           Pcnt       CMS       CMS    10^6 ltr
  -----------------------------------------------------------
  Out_to_WWTP           99.01     0.188     0.271       5.242
  -----------------------------------------------------------
  System                99.01     0.188     0.271       5.242
  
  
  ********************
  Link Flow Summary
  ********************
  
  -----------------------------------------------------------------------------
                                 Maximum  Time of Max   Maximum    Max/    Max/
                                  |Flow|   Occurrence   |Veloc|    Full    Full
  Link                 Type          CMS  days hr:min     m/sec    Flow   Depth
  -----------------------------------------------------------------------------
  C1                   CONDUIT     0.039     0  03:49      1.05    0.01    0.09
  C6                   CONDUIT     0.070     0  02:26      1.28    1.12    0.73
  C2                   CONDUIT     0.026     0  05:00      0.96    0.03    0.15
  C9                   CONDUIT     0.101     0  02:25      1.22    0.35    0.44
  C16                  CONDUIT     0.412     0  02:23      1.67    0.04    0.13
  C3                   CONDUIT     0.058     0  07:50      1.30    0.02    0.11
  C19                  CONDUIT     0.029     0  04:35      0.63    0.01    0.18
  C11                  CONDUIT     0.120     0  05:06      1.43    0.01    0.10
  C20                  CONDUIT     0.534     0  02:20      2.60    0.02    0.12
  C22                  CONDUIT     0.175     0  02:23      1.52    0.08    0.28
  C12                  CONDUIT     0.075     0  04:06      0.93    0.01    0.18
  C17                  CONDUIT     0.712     0  02:22      2.82    0.04    0.17
  C10                  CONDUIT     0.517     0  02:28      1.66    0.05    0.58
  C13                  CONDUIT     0.756     0  02:25      1.45    0.04    0.66
  C18                  CONDUIT     0.366     0  02:20      1.72    0.01    0.54
  C23                  CONDUIT     0.782     0  02:25      1.24    0.09    0.60
  C4                   CONDUIT     0.259     0  02:20      1.98    0.06    0.58
  C7                   CONDUIT     0.162     0  02:26      1.43    0.04    0.57
  C14                  CONDUIT     0.271     0  02:43      2.08    0.02    0.09
  C5                   CONDUIT     0.070     0  02:26      1.37    1.20    1.00
  C8                   CONDUIT     0.102     0  02:22      1.47    1.28    0.82
  C15                  CONDUIT     0.414     0  02:21      2.99    1.32    0.80
  C21                  CONDUIT     0.176     0  02:22      1.76    1.01    0.64
  V4                   ORIFICE     0.026     0  04:59                      0.35
  V5                   ORIFICE     0.039     0  03:47                      1.00
  V1                   ORIFICE     0.271     0  02:41                      1.00
  V6                   ORIFICE     0.075     0  02:47                      0.43
  V3                   ORIFICE     0.058     0  07:49                      0.65
  V2                   ORIFICE     0.029     0  04:33                      0.24
  
  
  ***************************
  Flow Classification Summary
  ***************************
  
  -------------------------------------------------------------------------------------
                      Adjusted    ---------- Fraction of Time in Flow Class ---------- 
                       /Actual         Up    Down  Sub   Sup   Up    Down  Norm  Inlet 
  Conduit               Length    Dry  Dry   Dry   Crit  Crit  Crit  Crit  Ltd   Ctrl  
  -------------------------------------------------------------------------------------
  C1                      1.00   0.00  0.00  0.00  0.00  1.00  0.00  0.00  0.93  0.00
  C6                      1.00   0.00  0.00  0.00  0.11  0.89  0.00  0.00  0.00  0.00
  C2                      1.00   0.00  0.00  0.00  0.04  0.96  0.00  0.00  0.97  0.00
  C9                      1.00   0.00  0.00  0.00  1.00  0.00  0.00  0.00  1.00  0.00
  C16                     1.00   0.00  0.00  0.00  0.59  0.41  0.00  0.00  0.48  0.00
  C3                      1.00   0.00  0.00  0.00  0.04  0.95  0.00  0.00  0.96  0.00
  C19                     1.00   0.00  0.00  0.00  1.00  0.00  0.00  0.00  1.00  0.00
  C11                     1.00   0.00  0.00  0.00  0.34  0.66  0.00  0.00  1.00  0.00
  C20                     1.00   0.00  0.00  0.00  0.54  0.46  0.00  0.00  0.98  0.00
  C22                     1.00   0.00  0.00  0.00  0.76  0.24  0.00  0.00  1.00  0.00
  C12                     1.00   0.00  0.00  0.00  0.99  0.01  0.00  0.00  1.00  0.00
  C17                     1.00   0.00  0.00  0.00  0.51  0.49  0.00  0.00  0.97  0.00
  C10                     1.00   0.00  0.00  0.00  0.96  0.04  0.00  0.00  0.97  0.00
  C13                     1.00   0.00  0.00  0.00  0.88  0.12  0.00  0.00  0.39  0.00
  C18                     1.00   0.00  0.00  0.00  0.94  0.06  0.00  0.00  0.97  0.00
  C23                     1.00   0.00  0.00  0.00  0.88  0.12  0.00  0.00  0.94  0.00
  C4                      1.00   0.00  0.00  0.00  0.96  0.04  0.00  0.00  0.98  0.00
  C7                      1.00   0.00  0.00  0.00  0.95  0.05  0.00  0.00  0.97  0.00
  C14                     1.00   0.00  0.00  0.00  0.00  0.99  0.00  0.00  0.35  0.00
  C5                      1.00   0.00  0.00  0.00  0.89  0.11  0.00  0.00  0.90  0.00
  C8                      1.00   0.00  0.00  0.00  0.12  0.88  0.00  0.00  0.00  0.00
  C15                     1.00   0.00  0.00  0.00  0.00  1.00  0.00  0.00  0.00  0.00
  C21                     1.00   0.00  0.00  0.00  0.00  1.00  0.00  0.00  0.00  0.00
  
  
  *************************
  Conduit Surcharge Summary
  *************************
  
  ----------------------------------------------------------------------------
                                                           Hours        Hours 
                         --------- Hours Full --------   Above Full   Capacity
  Conduit                Both Ends  Upstream  Dnstream   Normal Flow   Limited
  ----------------------------------------------------------------------------
  C6                          0.01      0.58      0.01      0.34         0.01
  C10                         0.01      0.01      5.71      0.01         0.01
  C13                         0.01      0.01      5.32      0.01         0.01
  C18                         0.01      0.01      5.37      0.01         0.01
  C23                         0.01      0.01      5.77      0.01         0.01
  C4                          0.01      0.01      5.91      0.01         0.01
  C7                          0.01      0.01      5.65      0.01         0.01
  C5                          0.59      0.60      0.75      0.61         0.53
  C8                          0.01      0.59      0.01      0.58         0.01
  C15                         0.01      0.52      0.01      0.57         0.01
  C21                         0.01      0.01      0.01      0.08         0.01
  

  Analysis begun on:  Fri Sep  3 16:34:17 2021
  Analysis ended on:  Fri Sep  3 16:34:17 2021
  Total elapsed time: < 1 sec