
  EPA STORM WATER MANAGEMENT MODEL - VERSION 5.1 (Build 5.3.0.dev0)
  --------------------------------------------------------------

  
  *********************************************************
  NOTE: The summary statistics displayed in this report are
  based on results found at every computational time step,  
  not just on results from each reporting time step.
  *********************************************************
  
  ****************
  Analysis Options
  ****************
  Flow Units ............... CMS
  Process Models:
    Rainfall/Runoff ........ YES
    RDII ................... NO
    Snowmelt ............... NO
    Groundwater ............ NO
    Flow Routing ........... YES
    Ponding Allowed ........ YES
    Water Quality .......... NO
  Infiltration Method ...... HORTON
  Flow Routing Method ...... DYNWAVE
  Surcharge Method ......... EXTRAN
  Starting Date ............ 08/28/2015 08:00:00
  Ending Date .............. 08/28/2015 15:50:00
  Antecedent Dry Days ...... 0.0
  Report Time Step ......... 00:01:00
  Wet Time Step ............ 00:01:00
  Dry Time Step ............ 00:01:00
  Routing Time Step ........ 5.00 sec
  Variable Time Step ....... YES
  Maximum Trials ........... 8
  Number of Threads ........ 1
  Head Tolerance ........... 0.001500 m
  
  
  **************************        Volume         Depth
  Runoff Quantity Continuity     hectare-m            mm
  **************************     ---------       -------
  Total Precipitation ......         1.866        10.356
  Evaporation Loss .........         0.000         0.000
  Infiltration Loss ........         0.000         0.000
  Surface Runoff ...........         1.843        10.227
  Final Storage ............         0.023         0.130
  Continuity Error (%) .....        -0.006
  
  
  **************************        Volume        Volume
  Flow Routing Continuity        hectare-m      10^6 ltr
  **************************     ---------     ---------
  Dry Weather Inflow .......         0.396         3.955
  Wet Weather Inflow .......         1.843        18.428
  Groundwater Inflow .......         0.000         0.000
  RDII Inflow ..............         0.000         0.000
  External Inflow ..........         0.000         0.000
  External Outflow .........         0.540         5.396
  Flooding Loss ............         0.642         6.420
  Evaporation Loss .........         0.000         0.000
  Exfiltration Loss ........         0.000         0.000
  Initial Stored Volume ....         0.000         0.000
  Final Stored Volume ......         0.811         8.105
  Continuity Error (%) .....        11.004
  
  
  *************************
  Highest Continuity Errors
  *************************
  Node T2 (33.53%)
  Node T3 (23.14%)
  Node T4 (21.53%)
  Node T5 (18.43%)
  Node T6 (14.77%)
  
  
  ***************************
  Time-Step Critical Elements
  ***************************
  None
  
  
  ********************************
  Highest Flow Instability Indexes
  ********************************
  All links are stable.
  
  
  *************************
  Routing Time Step Summary
  *************************
  Minimum Time Step           :     4.50 sec
  Average Time Step           :     5.00 sec
  Maximum Time Step           :     5.00 sec
  Percent in Steady State     :     0.00
  Average Iterations per Step :     2.19
  Percent Not Converging      :     0.57
  
  
  ***************************
  Subcatchment Runoff Summary
  ***************************
  
  ------------------------------------------------------------------------------------------------------------------------------
                            Total      Total      Total      Total     Imperv       Perv      Total       Total     Peak  Runoff
                           Precip      Runon       Evap      Infil     Runoff     Runoff     Runoff      Runoff   Runoff   Coeff
  Subcatchment                 mm         mm         mm         mm         mm         mm         mm    10^6 ltr      CMS
  ------------------------------------------------------------------------------------------------------------------------------
  SC01                      10.36       0.00       0.00       0.00      10.27       0.00      10.27        3.39     0.86   0.992
  SC02                      10.36       0.00       0.00       0.00      10.27       0.00      10.27        2.34     0.59   0.991
  SC03                      10.36       0.00       0.00       0.00      10.29       0.00      10.29        1.85     0.50   0.993
  SC04                      10.36       0.00       0.00       0.00      10.16       0.00      10.16        0.70     0.15   0.981
  SC05                      10.36       0.00       0.00       0.00      10.27       0.00      10.27        1.60     0.40   0.991
  SC06                      10.36       0.00       0.00       0.00      10.11       0.00      10.11        3.29     0.68   0.976
  SC07                      10.36       0.00       0.00       0.00      10.16       0.00      10.16        0.48     0.11   0.981
  SC08                      10.36       0.00       0.00       0.00      10.24       0.00      10.24        2.87     0.69   0.989
  SC09                      10.36       0.00       0.00       0.00      10.22       0.00      10.22        0.70     0.16   0.986
  SC010                     10.36       0.00       0.00       0.00      10.24       0.00      10.24        1.20     0.29   0.989
  
  
  ******************
  Node Depth Summary
  ******************
  
  ---------------------------------------------------------------------------------
                                 Average  Maximum  Maximum  Time of Max    Reported
                                   Depth    Depth      HGL   Occurrence   Max Depth
  Node                 Type       Meters   Meters   Meters  days hr:min      Meters
  ---------------------------------------------------------------------------------
  J1                   JUNCTION     0.08     0.22    34.22     0  02:27        0.22
  J3                   JUNCTION     0.10     0.13    18.13     0  06:12        0.13
  CSO7                 JUNCTION     0.23     1.20    35.20     0  02:11        1.20
  J5                   JUNCTION     0.07     0.16    32.16     0  02:31        0.16
  CSO9                 JUNCTION     0.30     2.00    42.00     0  02:17        2.00
  J8                   JUNCTION     0.12     0.30    36.30     0  02:33        0.30
  CSO8                 JUNCTION     0.32     2.00    34.00     0  02:15        2.00
  J10                  JUNCTION     0.11     0.30    29.30     0  02:26        0.30
  J13                  JUNCTION     0.07     0.21    29.21     0  02:27        0.21
  J15                  JUNCTION     0.17     0.36    15.36     0  02:30        0.36
  J16                  JUNCTION     0.08     0.23    30.23     0  02:27        0.23
  CSO10                JUNCTION     0.19     1.00    31.00     0  02:15        1.00
  J12                  JUNCTION     0.65     1.00    27.00     0  04:20        1.00
  J4                   JUNCTION     0.19     1.22    34.22     0  02:11        0.87
  J6                   JUNCTION     0.06     0.07    25.07     0  03:57        0.07
  J2                   JUNCTION     0.07     0.08    25.08     0  03:25        0.08
  J19                  JUNCTION     0.14     0.17     8.17     0  02:27        0.17
  J9                   JUNCTION     0.09     0.11    29.11     0  04:20        0.11
  J14                  JUNCTION     0.09     0.15    20.15     0  06:40        0.15
  J17                  JUNCTION     0.04     0.07    20.07     0  07:21        0.07
  J7                   JUNCTION     0.09     0.23    39.23     0  02:51        0.23
  J11                  JUNCTION     0.11     0.30    31.30     0  02:51        0.30
  J18                  JUNCTION     0.06     0.16    29.16     0  02:51        0.16
  Out_to_WWTP          OUTFALL      0.14     0.17     6.17     0  03:45        0.17
  T5                   STORAGE      3.48     5.00    32.00     0  02:36        5.00
  T4                   STORAGE      3.41     5.00    32.00     0  03:07        5.00
  T6                   STORAGE      3.67     5.00    36.00     0  02:28        5.00
  T3                   STORAGE      3.46     5.00    27.00     0  04:14        5.00
  T2                   STORAGE      3.57     5.00    26.00     0  02:53        5.00
  T1                   STORAGE      3.06     5.00    15.00     0  02:25        5.00
  
  
  *******************
  Node Inflow Summary
  *******************
  
  -------------------------------------------------------------------------------------------------
                                  Maximum  Maximum                  Lateral       Total        Flow
                                  Lateral    Total  Time of Max      Inflow      Inflow     Balance
                                   Inflow   Inflow   Occurrence      Volume      Volume       Error
  Node                 Type           CMS      CMS  days hr:min    10^6 ltr    10^6 ltr     Percent
  -------------------------------------------------------------------------------------------------
  J1                   JUNCTION     0.422    0.422     0  02:27        2.16        2.16       0.016
  J3                   JUNCTION     0.000    0.186     0  06:10           0        2.86       1.018
  CSO7                 JUNCTION     0.116    0.116     0  02:31       0.773       0.773       0.059
  J5                   JUNCTION     0.157    0.229     0  02:31       0.829        1.51       0.098
  CSO9                 JUNCTION     0.170    0.170     0  02:29       0.901       0.901       0.049
  J8                   JUNCTION     0.715    0.842     0  02:32        4.23        5.08       0.099
  CSO8                 JUNCTION     0.698    0.698     0  02:28        3.16        3.16       0.014
  J10                  JUNCTION     0.509    0.996     0  02:25        2.24        5.13      -0.015
  J13                  JUNCTION     0.604    0.604     0  02:27         2.8         2.8      -0.152
  J15                  JUNCTION     0.000    1.186     0  02:27           0        8.35       0.758
  J16                  JUNCTION     0.883    0.883     0  02:27        3.94        3.94      -0.011
  CSO10                JUNCTION     0.296    0.296     0  02:28        1.34        1.34       0.020
  J12                  JUNCTION     0.000    1.061     0  02:27           0        6.78      13.683
  J4                   JUNCTION     0.000    0.072     0  02:11           0       0.689       0.487
  J6                   JUNCTION     0.000    0.028     0  03:10           0       0.562       0.705
  J2                   JUNCTION     0.000    0.039     0  02:36           0       0.852       0.595
  J19                  JUNCTION     0.000    0.271     0  02:25           0        5.41       0.186
  J9                   JUNCTION     0.000    0.075     0  02:28           0        1.43       1.289
  J14                  JUNCTION     0.000    0.124     0  05:10           0        1.46       0.299
  J17                  JUNCTION     0.000    0.033     0  03:20           0       0.352       1.195
  J7                   JUNCTION     0.000    0.127     0  02:51           0        0.85       0.366
  J11                  JUNCTION     0.000    0.486     0  02:51           0         2.9       0.217
  J18                  JUNCTION     0.000    0.202     0  02:50           0        1.23       0.072
  Out_to_WWTP          OUTFALL      0.000    0.271     0  02:27           0         5.4       0.000
  T5                   STORAGE      0.000    0.422     0  02:27           0        2.16      22.591
  T4                   STORAGE      0.000    0.229     0  02:31           0        1.51      27.445
  T6                   STORAGE      0.000    0.841     0  02:33           0        5.07      17.331
  T3                   STORAGE      0.000    1.052     0  02:29           0        5.96      30.115
  T2                   STORAGE      0.000    0.604     0  02:27           0        2.81      50.454
  T1                   STORAGE      0.000    1.169     0  02:30           0        8.29       5.865
  
  
  **********************
  Node Surcharge Summary
  **********************
  
  Surcharging occurs when water rises above the top of the highest conduit.
  ---------------------------------------------------------------------
                                               Max. Height   Min. Depth
                                   Hours       Above Crown    Below Rim
  Node                 Type      Surcharged         Meters       Meters
  ---------------------------------------------------------------------
  CSO7                 JUNCTION        1.04          0.945        0.000
  CSO9                 JUNCTION        1.06          1.682        0.000
  CSO8                 JUNCTION        1.02          1.547        0.000
  CSO10                JUNCTION        0.79          0.560        0.000
  J4                   JUNCTION        1.01          0.921        0.779
  
  
  *********************
  Node Flooding Summary
  *********************
  
  Flooding refers to all water that overflows a node, whether it ponds or not.
  --------------------------------------------------------------------------
                                                             Total   Maximum
                                 Maximum   Time of Max       Flood    Ponded
                        Hours       Rate    Occurrence      Volume     Depth
  Node                 Flooded       CMS   days hr:min    10^6 ltr    Meters
  --------------------------------------------------------------------------
  CSO7                    0.86     0.044      0  02:31       0.083     0.000
  CSO9                    0.56     0.043      0  02:29       0.051     0.000
  CSO8                    0.60     0.212      0  02:28       0.256     0.000
  CSO10                   0.62     0.093      0  02:28       0.115     0.000
  T5                      1.26     0.337      0  02:36       0.512     0.000
  T4                      1.96     0.116      0  03:07       0.180     0.000
  T6                      2.83     0.791      0  02:38       2.364     0.000
  T3                      2.12     0.240      0  04:22       0.290     0.000
  T2                      4.13     0.365      0  02:53       0.522     0.000
  T1                      1.19     0.898      0  02:30       2.046     0.000
  
  
  **********************
  Storage Volume Summary
  **********************
  
  --------------------------------------------------------------------------------------------------
                         Average     Avg  Evap Exfil       Maximum     Max    Time of Max    Maximum
                          Volume    Pcnt  Pcnt  Pcnt        Volume    Pcnt     Occurrence    Outflow
  Storage Unit           1000 m3    Full  Loss  Loss       1000 m3    Full    days hr:min        CMS
  --------------------------------------------------------------------------------------------------
  T5                       0.348      70     0     0         0.500     100       0  02:36      0.039
  T4                       0.341      68     0     0         0.500     100       0  03:07      0.028
  T6                       0.441      73     0     0         0.600     100       0  02:28      0.075
  T3                       1.798      69     0     0         2.600     100       0  04:14      0.292
  T2                       0.714      71     0     0         1.000     100       0  02:53      0.033
  T1                       0.429      61     0     0         0.700     100       0  02:25      0.271
  
  
  ***********************
  Outfall Loading Summary
  ***********************
  
  -----------------------------------------------------------
                         Flow       Avg       Max       Total
                         Freq      Flow      Flow      Volume
  Outfall Node           Pcnt       CMS       CMS    10^6 ltr
  -----------------------------------------------------------
  Out_to_WWTP           99.01     0.193     0.271       5.396
  -----------------------------------------------------------
  System                99.01     0.193     0.271       5.396
  
  
  ********************
  Link Flow Summary
  ********************
  
  -----------------------------------------------------------------------------
                                 Maximum  Time of Max   Maximum    Max/    Max/
                                  |Flow|   Occurrence   |Veloc|    Full    Full
  Link                 Type          CMS  days hr:min     m/sec    Flow   Depth
  -----------------------------------------------------------------------------
  C1                   CONDUIT     0.039     0  03:25      1.08    0.01    0.10
  C6                   CONDUIT     0.072     0  02:31      1.29    1.14    0.77
  C2                   CONDUIT     0.028     0  03:57      1.00    0.03    0.17
  C9                   CONDUIT     0.127     0  02:51      1.29    0.43    0.53
  C16                  CONDUIT     0.489     0  02:22      1.79    0.05    0.15
  C3                   CONDUIT     0.121     0  05:10      1.82    0.05    0.14
  C19                  CONDUIT     0.030     0  07:21      0.67    0.01    0.20
  C11                  CONDUIT     0.179     0  06:12      1.78    0.01    0.12
  C20                  CONDUIT     0.882     0  02:27      3.10    0.03    0.15
  C22                  CONDUIT     0.202     0  02:50      1.61    0.09    0.33
  C12                  CONDUIT     0.075     0  04:20      0.60    0.01    0.28
  C17                  CONDUIT     0.993     0  02:26      3.10    0.05    0.27
  C10                  CONDUIT     0.841     0  02:33      1.66    0.09    0.60
  C13                  CONDUIT     1.052     0  02:29      1.45    0.06    0.75
  C18                  CONDUIT     0.604     0  02:27      1.72    0.02    0.55
  C23                  CONDUIT     1.169     0  02:30      1.24    0.13    0.62
  C4                   CONDUIT     0.422     0  02:27      1.98    0.10    0.61
  C7                   CONDUIT     0.229     0  02:31      1.43    0.06    0.58
  C14                  CONDUIT     0.271     0  02:27      2.08    0.02    0.09
  C5                   CONDUIT     0.072     0  02:11      1.41    1.24    1.00
  C8                   CONDUIT     0.127     0  02:51      1.75    1.60    0.86
  C15                  CONDUIT     0.486     0  02:51      3.42    1.55    0.83
  C21                  CONDUIT     0.202     0  02:50      1.83    1.16    0.69
  V4                   ORIFICE     0.028     0  03:10                      0.35
  V5                   ORIFICE     0.039     0  02:36                      1.00
  V1                   ORIFICE     0.271     0  02:25                      1.00
  V6                   ORIFICE     0.075     0  02:28                      0.43
  V3                   ORIFICE     0.124     0  05:10                      0.65
  V2                   ORIFICE     0.033     0  03:20                      0.24
  
  
  ***************************
  Flow Classification Summary
  ***************************
  
  -------------------------------------------------------------------------------------
                      Adjusted    ---------- Fraction of Time in Flow Class ---------- 
                       /Actual         Up    Down  Sub   Sup   Up    Down  Norm  Inlet 
  Conduit               Length    Dry  Dry   Dry   Crit  Crit  Crit  Crit  Ltd   Ctrl  
  -------------------------------------------------------------------------------------
  C1                      1.00   0.00  0.00  0.00  0.00  1.00  0.00  0.00  0.94  0.00
  C6                      1.00   0.00  0.00  0.00  0.16  0.84  0.00  0.00  0.00  0.00
  C2                      1.00   0.00  0.00  0.00  0.13  0.87  0.00  0.00  0.95  0.00
  C9                      1.00   0.00  0.00  0.00  1.00  0.00  0.00  0.00  1.00  0.00
  C16                     1.00   0.00  0.00  0.00  0.56  0.44  0.00  0.00  0.48  0.00
  C3                      1.00   0.00  0.00  0.00  0.05  0.95  0.00  0.00  0.82  0.00
  C19                     1.00   0.00  0.00  0.00  1.00  0.00  0.00  0.00  1.00  0.00
  C11                     1.00   0.00  0.00  0.00  0.35  0.65  0.00  0.00  1.00  0.00
  C20                     1.00   0.00  0.00  0.00  0.53  0.47  0.00  0.00  0.98  0.00
  C22                     1.00   0.00  0.00  0.00  0.73  0.27  0.00  0.00  1.00  0.00
  C12                     1.00   0.00  0.00  0.00  1.00  0.00  0.00  0.00  1.00  0.00
  C17                     1.00   0.00  0.00  0.00  0.62  0.38  0.00  0.00  0.94  0.00
  C10                     1.00   0.00  0.00  0.00  0.96  0.04  0.00  0.00  0.97  0.00
  C13                     1.00   0.00  0.00  0.00  0.86  0.14  0.00  0.00  0.28  0.00
  C18                     1.00   0.00  0.00  0.00  0.94  0.06  0.00  0.00  0.97  0.00
  C23                     1.00   0.00  0.00  0.00  0.86  0.14  0.00  0.00  0.94  0.00
  C4                      1.00   0.00  0.00  0.00  0.96  0.04  0.00  0.00  0.98  0.00
  C7                      1.00   0.00  0.00  0.00  0.94  0.06  0.00  0.00  0.97  0.00
  C14                     1.00   0.00  0.00  0.00  0.00  0.99  0.00  0.00  0.32  0.00
  C5                      1.00   0.00  0.00  0.00  0.90  0.10  0.00  0.00  0.84  0.00
  C8                      1.00   0.00  0.00  0.00  0.17  0.83  0.00  0.00  0.00  0.00
  C15                     1.00   0.00  0.00  0.00  0.00  1.00  0.00  0.00  0.00  0.00
  C21                     1.00   0.00  0.00  0.00  0.01  0.99  0.00  0.00  0.00  0.00
  
  
  *************************
  Conduit Surcharge Summary
  *************************
  
  ----------------------------------------------------------------------------
                                                           Hours        Hours 
                         --------- Hours Full --------   Above Full   Capacity
  Conduit                Both Ends  Upstream  Dnstream   Normal Flow   Limited
  ----------------------------------------------------------------------------
  C6                          0.01      1.01      0.01      0.91         0.01
  C10                         0.01      0.01      5.91      0.01         0.01
  C13                         0.01      0.01      5.49      0.01         0.01
  C18                         0.01      0.01      5.58      0.01         0.01
  C23                         0.01      0.01      5.96      0.01         0.01
  C4                          0.01      0.01      6.08      0.01         0.01
  C7                          0.01      0.01      5.83      0.01         0.01
  C5                          1.04      1.04      1.14      1.10         1.01
  C8                          0.01      1.06      0.01      1.08         0.01
  C15                         0.01      1.02      0.01      1.09         0.01
  C21                         0.01      0.79      0.01      0.79         0.01
  

  Analysis begun on:  Fri Sep  3 19:02:59 2021
  Analysis ended on:  Fri Sep  3 19:02:59 2021
  Total elapsed time: < 1 sec