
  EPA STORM WATER MANAGEMENT MODEL - VERSION 5.1 (Build 5.3.0.dev0)
  --------------------------------------------------------------

  
  *********************************************************
  NOTE: The summary statistics displayed in this report are
  based on results found at every computational time step,  
  not just on results from each reporting time step.
  *********************************************************
  
  ****************
  Analysis Options
  ****************
  Flow Units ............... CMS
  Process Models:
    Rainfall/Runoff ........ YES
    RDII ................... NO
    Snowmelt ............... NO
    Groundwater ............ NO
    Flow Routing ........... YES
    Ponding Allowed ........ YES
    Water Quality .......... NO
  Infiltration Method ...... HORTON
  Flow Routing Method ...... DYNWAVE
  Surcharge Method ......... EXTRAN
  Starting Date ............ 08/28/2015 08:00:00
  Ending Date .............. 08/28/2015 15:50:00
  Antecedent Dry Days ...... 0.0
  Report Time Step ......... 00:01:00
  Wet Time Step ............ 00:01:00
  Dry Time Step ............ 00:01:00
  Routing Time Step ........ 5.00 sec
  Variable Time Step ....... YES
  Maximum Trials ........... 8
  Number of Threads ........ 1
  Head Tolerance ........... 0.001500 m
  
  
  **************************        Volume         Depth
  Runoff Quantity Continuity     hectare-m            mm
  **************************     ---------       -------
  Total Precipitation ......         1.512         8.390
  Evaporation Loss .........         0.000         0.000
  Infiltration Loss ........         0.000         0.000
  Surface Runoff ...........         1.489         8.263
  Final Storage ............         0.023         0.129
  Continuity Error (%) .....        -0.017
  
  
  **************************        Volume        Volume
  Flow Routing Continuity        hectare-m      10^6 ltr
  **************************     ---------     ---------
  Dry Weather Inflow .......         0.396         3.955
  Wet Weather Inflow .......         1.489        14.890
  Groundwater Inflow .......         0.000         0.000
  RDII Inflow ..............         0.000         0.000
  External Inflow ..........         0.000         0.000
  External Outflow .........         0.575         5.751
  Flooding Loss ............         0.286         2.863
  Evaporation Loss .........         0.000         0.000
  Exfiltration Loss ........         0.000         0.000
  Initial Stored Volume ....         0.000         0.000
  Final Stored Volume ......         0.781         7.814
  Continuity Error (%) .....        12.826
  
  
  *************************
  Highest Continuity Errors
  *************************
  Node T2 (40.18%)
  Node T4 (23.98%)
  Node T3 (23.53%)
  Node T5 (21.56%)
  Node T6 (16.76%)
  
  
  ***************************
  Time-Step Critical Elements
  ***************************
  None
  
  
  ********************************
  Highest Flow Instability Indexes
  ********************************
  Link C13 (2)
  
  
  *************************
  Routing Time Step Summary
  *************************
  Minimum Time Step           :     4.50 sec
  Average Time Step           :     5.00 sec
  Maximum Time Step           :     5.00 sec
  Percent in Steady State     :     0.00
  Average Iterations per Step :     2.15
  Percent Not Converging      :     0.41
  
  
  ***************************
  Subcatchment Runoff Summary
  ***************************
  
  ------------------------------------------------------------------------------------------------------------------------------
                            Total      Total      Total      Total     Imperv       Perv      Total       Total     Peak  Runoff
                           Precip      Runon       Evap      Infil     Runoff     Runoff     Runoff      Runoff   Runoff   Coeff
  Subcatchment                 mm         mm         mm         mm         mm         mm         mm    10^6 ltr      CMS
  ------------------------------------------------------------------------------------------------------------------------------
  SC01                       8.39       0.00       0.00       0.00       8.31       0.00       8.31        2.74     0.78   0.990
  SC02                       8.39       0.00       0.00       0.00       8.30       0.00       8.30        1.89     0.52   0.989
  SC03                       8.39       0.00       0.00       0.00       8.32       0.00       8.32        1.50     0.48   0.992
  SC04                       8.39       0.00       0.00       0.00       8.20       0.00       8.20        0.57     0.10   0.977
  SC05                       8.39       0.00       0.00       0.00       8.30       0.00       8.30        1.29     0.36   0.989
  SC06                       8.39       0.00       0.00       0.00       8.15       0.00       8.15        2.65     0.40   0.971
  SC07                       8.39       0.00       0.00       0.00       8.20       0.00       8.20        0.39     0.07   0.978
  SC08                       8.39       0.00       0.00       0.00       8.28       0.00       8.28        2.32     0.55   0.986
  SC09                       8.39       0.00       0.00       0.00       8.25       0.00       8.25        0.57     0.12   0.983
  SC010                      8.39       0.00       0.00       0.00       8.28       0.00       8.28        0.97     0.24   0.987
  
  
  ******************
  Node Depth Summary
  ******************
  
  ---------------------------------------------------------------------------------
                                 Average  Maximum  Maximum  Time of Max    Reported
                                   Depth    Depth      HGL   Occurrence   Max Depth
  Node                 Type       Meters   Meters   Meters  days hr:min      Meters
  ---------------------------------------------------------------------------------
  J1                   JUNCTION     0.08     0.20    34.20     0  01:21        0.20
  J3                   JUNCTION     0.10     0.13    18.13     0  05:02        0.13
  CSO7                 JUNCTION     0.13     1.20    35.20     0  01:22        1.20
  J5                   JUNCTION     0.07     0.14    32.14     0  01:24        0.14
  CSO9                 JUNCTION     0.16     2.00    42.00     0  01:20        2.00
  J8                   JUNCTION     0.12     0.24    36.24     0  01:23        0.24
  CSO8                 JUNCTION     0.19     2.00    34.00     0  01:17        2.00
  J10                  JUNCTION     0.10     0.30    29.30     0  01:21        0.30
  J13                  JUNCTION     0.07     0.19    29.19     0  01:21        0.19
  J15                  JUNCTION     0.16     0.33    15.33     0  01:23        0.33
  J16                  JUNCTION     0.07     0.22    30.22     0  01:21        0.22
  CSO10                JUNCTION     0.14     1.00    31.00     0  01:16        1.00
  J12                  JUNCTION     0.46     0.84    26.84     0  07:43        0.84
  J4                   JUNCTION     0.14     1.24    34.24     0  01:22        0.77
  J6                   JUNCTION     0.06     0.07    25.07     0  04:32        0.07
  J2                   JUNCTION     0.07     0.08    25.08     0  03:42        0.08
  J19                  JUNCTION     0.14     0.17     8.17     0  02:20        0.17
  J9                   JUNCTION     0.09     0.11    29.11     0  04:30        0.11
  J14                  JUNCTION     0.09     0.15    20.15     0  05:40        0.15
  J17                  JUNCTION     0.04     0.07    20.07     0  06:01        0.07
  J7                   JUNCTION     0.09     0.22    39.22     0  01:23        0.22
  J11                  JUNCTION     0.11     0.29    31.29     0  01:23        0.29
  J18                  JUNCTION     0.06     0.16    29.16     0  01:24        0.16
  Out_to_WWTP          OUTFALL      0.14     0.17     6.17     0  02:19        0.17
  T5                   STORAGE      3.63     5.00    32.00     0  02:56        5.00
  T4                   STORAGE      3.51     5.00    32.00     0  03:52        5.00
  T6                   STORAGE      3.86     5.00    36.00     0  02:18        5.00
  T3                   STORAGE      3.37     4.85    26.85     0  07:48        4.84
  T2                   STORAGE      3.62     5.00    26.00     0  04:07        5.00
  T1                   STORAGE      3.37     5.00    15.00     0  02:19        5.00
  
  
  *******************
  Node Inflow Summary
  *******************
  
  -------------------------------------------------------------------------------------------------
                                  Maximum  Maximum                  Lateral       Total        Flow
                                  Lateral    Total  Time of Max      Inflow      Inflow     Balance
                                   Inflow   Inflow   Occurrence      Volume      Volume       Error
  Node                 Type           CMS      CMS  days hr:min    10^6 ltr    10^6 ltr     Percent
  -------------------------------------------------------------------------------------------------
  J1                   JUNCTION     0.374    0.374     0  01:21        1.86        1.86      -0.018
  J3                   JUNCTION     0.000    0.183     0  05:00           0        2.95       0.983
  CSO7                 JUNCTION     0.077    0.077     0  01:21        0.68        0.68       0.083
  J5                   JUNCTION     0.103    0.167     0  01:23       0.693        1.37       0.078
  CSO9                 JUNCTION     0.127    0.127     0  01:21       0.765       0.765       0.034
  J8                   JUNCTION     0.428    0.538     0  01:21        3.59        4.36       0.079
  CSO8                 JUNCTION     0.563    0.563     0  01:21        2.61        2.61       0.012
  J10                  JUNCTION     0.496    0.972     0  01:21        1.88        4.47       0.025
  J13                  JUNCTION     0.536    0.536     0  01:21        2.36        2.36      -0.302
  J15                  JUNCTION     0.000    1.036     0  01:21           0        7.66       0.809
  J16                  JUNCTION     0.801    0.801     0  01:21        3.29        3.29      -0.046
  CSO10                JUNCTION     0.242    0.242     0  01:21        1.11        1.11       0.022
  J12                  JUNCTION     0.000    0.987     0  01:21           0        6.38      11.080
  J4                   JUNCTION     0.000    0.077     0  01:21           0       0.679       0.476
  J6                   JUNCTION     0.000    0.028     0  03:52           0       0.576       0.681
  J2                   JUNCTION     0.000    0.039     0  02:56           0       0.882       0.572
  J19                  JUNCTION     0.000    0.271     0  02:19           0        5.76       0.172
  J9                   JUNCTION     0.000    0.075     0  02:19           0        1.56       1.183
  J14                  JUNCTION     0.000    0.119     0  05:40           0        1.51       0.287
  J17                  JUNCTION     0.000    0.033     0  06:00           0       0.346       1.219
  J7                   JUNCTION     0.000    0.125     0  01:21           0       0.765       0.422
  J11                  JUNCTION     0.000    0.486     0  01:23           0        2.59       0.269
  J18                  JUNCTION     0.000    0.202     0  01:24           0         1.1       0.062
  Out_to_WWTP          OUTFALL      0.000    0.271     0  02:20           0        5.75       0.000
  T5                   STORAGE      0.000    0.371     0  01:21           0        1.86      27.485
  T4                   STORAGE      0.000    0.164     0  01:24           0        1.37      31.547
  T6                   STORAGE      0.000    0.526     0  01:23           0        4.35      20.132
  T3                   STORAGE      0.000    0.939     0  01:23           0        5.75      30.762
  T2                   STORAGE      0.000    0.532     0  01:21           0        2.36      67.180
  T1                   STORAGE      0.000    0.954     0  01:23           0         7.6       6.334
  
  
  **********************
  Node Surcharge Summary
  **********************
  
  Surcharging occurs when water rises above the top of the highest conduit.
  ---------------------------------------------------------------------
                                               Max. Height   Min. Depth
                                   Hours       Above Crown    Below Rim
  Node                 Type      Surcharged         Meters       Meters
  ---------------------------------------------------------------------
  CSO7                 JUNCTION        0.30          0.945        0.000
  CSO9                 JUNCTION        0.40          1.682        0.000
  CSO8                 JUNCTION        0.36          1.547        0.000
  CSO10                JUNCTION        0.21          0.560        0.000
  J4                   JUNCTION        0.28          0.938        0.762
  
  
  *********************
  Node Flooding Summary
  *********************
  
  Flooding refers to all water that overflows a node, whether it ponds or not.
  --------------------------------------------------------------------------
                                                             Total   Maximum
                                 Maximum   Time of Max       Flood    Ponded
                        Hours       Rate    Occurrence      Volume     Depth
  Node                 Flooded       CMS   days hr:min    10^6 ltr    Meters
  --------------------------------------------------------------------------
  CSO7                    0.03     0.007      0  01:22       0.000     0.000
  CSO9                    0.01     0.002      0  01:21       0.000     0.000
  CSO8                    0.11     0.078      0  01:21       0.016     0.000
  CSO10                   0.13     0.039      0  01:21       0.009     0.000
  T5                      0.93     0.161      0  03:01       0.175     0.000
  T4                      0.84     0.014      0  03:52       0.017     0.000
  T6                      2.72     0.413      0  03:01       1.553     0.000
  T2                      1.77     0.021      0  04:07       0.071     0.000
  T1                      1.38     0.376      0  03:02       1.022     0.000
  
  
  **********************
  Storage Volume Summary
  **********************
  
  --------------------------------------------------------------------------------------------------
                         Average     Avg  Evap Exfil       Maximum     Max    Time of Max    Maximum
                          Volume    Pcnt  Pcnt  Pcnt        Volume    Pcnt     Occurrence    Outflow
  Storage Unit           1000 m3    Full  Loss  Loss       1000 m3    Full    days hr:min        CMS
  --------------------------------------------------------------------------------------------------
  T5                       0.363      73     0     0         0.500     100       0  02:56      0.039
  T4                       0.351      70     0     0         0.500     100       0  03:52      0.028
  T6                       0.463      77     0     0         0.600     100       0  02:18      0.075
  T3                       1.753      67     0     0         2.519      97       0  07:48      0.237
  T2                       0.724      72     0     0         1.000     100       0  04:07      0.033
  T1                       0.471      67     0     0         0.700     100       0  02:19      0.271
  
  
  ***********************
  Outfall Loading Summary
  ***********************
  
  -----------------------------------------------------------
                         Flow       Avg       Max       Total
                         Freq      Flow      Flow      Volume
  Outfall Node           Pcnt       CMS       CMS    10^6 ltr
  -----------------------------------------------------------
  Out_to_WWTP           99.01     0.206     0.271       5.751
  -----------------------------------------------------------
  System                99.01     0.206     0.271       5.751
  
  
  ********************
  Link Flow Summary
  ********************
  
  -----------------------------------------------------------------------------
                                 Maximum  Time of Max   Maximum    Max/    Max/
                                  |Flow|   Occurrence   |Veloc|    Full    Full
  Link                 Type          CMS  days hr:min     m/sec    Flow   Depth
  -----------------------------------------------------------------------------
  C1                   CONDUIT     0.039     0  03:42      1.08    0.01    0.10
  C6                   CONDUIT     0.070     0  01:24      1.28    1.12    0.73
  C2                   CONDUIT     0.028     0  04:32      1.01    0.03    0.17
  C9                   CONDUIT     0.116     0  01:23      1.33    0.40    0.46
  C16                  CONDUIT     0.482     0  01:22      1.73    0.05    0.15
  C3                   CONDUIT     0.117     0  05:40      1.77    0.04    0.14
  C19                  CONDUIT     0.030     0  06:01      0.65    0.01    0.18
  C11                  CONDUIT     0.176     0  05:02      1.74    0.01    0.10
  C20                  CONDUIT     0.796     0  01:21      3.36    0.02    0.14
  C22                  CONDUIT     0.202     0  01:24      1.66    0.09    0.31
  C12                  CONDUIT     0.075     0  04:30      0.60    0.01    0.24
  C17                  CONDUIT     0.960     0  01:21      3.24    0.05    0.22
  C10                  CONDUIT     0.526     0  01:23      1.66    0.05    0.58
  C13                  CONDUIT     0.939     0  01:23      2.18    0.06    0.71
  C18                  CONDUIT     0.532     0  01:21      1.72    0.02    0.54
  C23                  CONDUIT     0.954     0  01:23      1.76    0.11    0.61
  C4                   CONDUIT     0.371     0  01:21      1.98    0.09    0.60
  C7                   CONDUIT     0.164     0  01:24      1.43    0.04    0.56
  C14                  CONDUIT     0.271     0  02:20      2.08    0.02    0.09
  C5                   CONDUIT     0.077     0  01:21      1.51    1.32    1.00
  C8                   CONDUIT     0.125     0  01:21      1.77    1.58    0.84
  C15                  CONDUIT     0.486     0  01:23      3.47    1.54    0.82
  C21                  CONDUIT     0.202     0  01:24      1.85    1.16    0.69
  V4                   ORIFICE     0.028     0  03:52                      0.35
  V5                   ORIFICE     0.039     0  02:56                      1.00
  V1                   ORIFICE     0.271     0  02:19                      1.00
  V6                   ORIFICE     0.075     0  02:19                      0.43
  V3                   ORIFICE     0.119     0  05:40                      0.65
  V2                   ORIFICE     0.033     0  06:00                      0.24
  
  
  ***************************
  Flow Classification Summary
  ***************************
  
  -------------------------------------------------------------------------------------
                      Adjusted    ---------- Fraction of Time in Flow Class ---------- 
                       /Actual         Up    Down  Sub   Sup   Up    Down  Norm  Inlet 
  Conduit               Length    Dry  Dry   Dry   Crit  Crit  Crit  Crit  Ltd   Ctrl  
  -------------------------------------------------------------------------------------
  C1                      1.00   0.00  0.00  0.00  0.00  1.00  0.00  0.00  0.94  0.00
  C6                      1.00   0.00  0.00  0.00  0.07  0.93  0.00  0.00  0.00  0.00
  C2                      1.00   0.00  0.00  0.00  0.15  0.85  0.00  0.00  0.95  0.00
  C9                      1.00   0.00  0.00  0.00  0.98  0.02  0.00  0.00  1.00  0.00
  C16                     1.00   0.00  0.00  0.00  0.55  0.45  0.00  0.00  0.44  0.00
  C3                      1.00   0.00  0.00  0.00  0.05  0.94  0.00  0.00  0.82  0.00
  C19                     1.00   0.00  0.00  0.00  1.00  0.00  0.00  0.00  1.00  0.00
  C11                     1.00   0.00  0.00  0.00  0.37  0.63  0.00  0.00  1.00  0.00
  C20                     1.00   0.00  0.00  0.00  0.55  0.45  0.00  0.00  0.97  0.00
  C22                     1.00   0.00  0.00  0.00  0.71  0.29  0.00  0.00  1.00  0.00
  C12                     1.00   0.00  0.00  0.00  1.00  0.00  0.00  0.00  1.00  0.00
  C17                     1.00   0.00  0.00  0.00  0.59  0.41  0.00  0.00  0.93  0.00
  C10                     1.00   0.00  0.00  0.00  0.96  0.04  0.00  0.00  0.98  0.00
  C13                     1.00   0.00  0.00  0.00  0.85  0.15  0.00  0.00  0.29  0.00
  C18                     1.00   0.00  0.00  0.00  0.93  0.07  0.00  0.00  0.97  0.00
  C23                     1.00   0.00  0.00  0.00  0.84  0.16  0.00  0.00  0.94  0.00
  C4                      1.00   0.00  0.00  0.00  0.96  0.04  0.00  0.00  0.98  0.00
  C7                      1.00   0.00  0.00  0.00  0.94  0.06  0.00  0.00  0.97  0.00
  C14                     1.00   0.00  0.00  0.00  0.00  0.99  0.00  0.00  0.33  0.00
  C5                      1.00   0.00  0.00  0.00  0.94  0.06  0.00  0.00  0.91  0.00
  C8                      1.00   0.00  0.00  0.00  0.13  0.87  0.00  0.00  0.00  0.00
  C15                     1.00   0.00  0.00  0.00  0.00  1.00  0.00  0.00  0.00  0.00
  C21                     1.00   0.00  0.00  0.00  0.01  0.99  0.00  0.00  0.00  0.00
  
  
  *************************
  Conduit Surcharge Summary
  *************************
  
  ----------------------------------------------------------------------------
                                                           Hours        Hours 
                         --------- Hours Full --------   Above Full   Capacity
  Conduit                Both Ends  Upstream  Dnstream   Normal Flow   Limited
  ----------------------------------------------------------------------------
  C6                          0.01      0.28      0.01      0.12         0.01
  C10                         0.01      0.01      6.37      0.01         0.01
  C13                         0.01      0.01      5.87      0.01         0.01
  C18                         0.01      0.01      6.01      0.01         0.01
  C23                         0.01      0.01      6.43      0.01         0.01
  C4                          0.01      0.01      6.50      0.01         0.01
  C7                          0.01      0.01      6.31      0.01         0.01
  C5                          0.27      0.30      0.45      0.39         0.22
  C8                          0.01      0.40      0.01      0.40         0.01
  C15                         0.01      0.36      0.01      0.43         0.01
  C21                         0.01      0.21      0.01      0.19         0.01
  

  Analysis begun on:  Fri Sep  3 19:03:47 2021
  Analysis ended on:  Fri Sep  3 19:03:47 2021
  Total elapsed time: < 1 sec