
  EPA STORM WATER MANAGEMENT MODEL - VERSION 5.1 (Build 5.3.0.dev0)
  --------------------------------------------------------------

  
  *********************************************************
  NOTE: The summary statistics displayed in this report are
  based on results found at every computational time step,  
  not just on results from each reporting time step.
  *********************************************************
  
  ****************
  Analysis Options
  ****************
  Flow Units ............... CMS
  Process Models:
    Rainfall/Runoff ........ YES
    RDII ................... NO
    Snowmelt ............... NO
    Groundwater ............ NO
    Flow Routing ........... YES
    Ponding Allowed ........ YES
    Water Quality .......... NO
  Infiltration Method ...... HORTON
  Flow Routing Method ...... DYNWAVE
  Surcharge Method ......... EXTRAN
  Starting Date ............ 08/28/2015 08:00:00
  Ending Date .............. 08/28/2015 15:50:00
  Antecedent Dry Days ...... 0.0
  Report Time Step ......... 00:01:00
  Wet Time Step ............ 00:01:00
  Dry Time Step ............ 00:01:00
  Routing Time Step ........ 5.00 sec
  Variable Time Step ....... YES
  Maximum Trials ........... 8
  Number of Threads ........ 1
  Head Tolerance ........... 0.001500 m
  
  
  **************************        Volume         Depth
  Runoff Quantity Continuity     hectare-m            mm
  **************************     ---------       -------
  Total Precipitation ......         1.355         7.517
  Evaporation Loss .........         0.000         0.000
  Infiltration Loss ........         0.000         0.000
  Surface Runoff ...........         1.332         7.391
  Final Storage ............         0.023         0.127
  Continuity Error (%) .....        -0.010
  
  
  **************************        Volume        Volume
  Flow Routing Continuity        hectare-m      10^6 ltr
  **************************     ---------     ---------
  Dry Weather Inflow .......         0.396         3.955
  Wet Weather Inflow .......         1.332        13.320
  Groundwater Inflow .......         0.000         0.000
  RDII Inflow ..............         0.000         0.000
  External Inflow ..........         0.000         0.000
  External Outflow .........         0.559         5.591
  Flooding Loss ............         0.197         1.970
  Evaporation Loss .........         0.000         0.000
  Exfiltration Loss ........         0.000         0.000
  Initial Stored Volume ....         0.000         0.000
  Final Stored Volume ......         0.740         7.402
  Continuity Error (%) .....        13.382
  
  
  *************************
  Highest Continuity Errors
  *************************
  Node T2 (41.23%)
  Node T3 (24.30%)
  Node T4 (24.11%)
  Node T5 (23.17%)
  Node T6 (18.46%)
  
  
  ***************************
  Time-Step Critical Elements
  ***************************
  None
  
  
  ********************************
  Highest Flow Instability Indexes
  ********************************
  Link C13 (2)
  
  
  *************************
  Routing Time Step Summary
  *************************
  Minimum Time Step           :     0.13 sec
  Average Time Step           :     5.00 sec
  Maximum Time Step           :     5.00 sec
  Percent in Steady State     :     0.00
  Average Iterations per Step :     2.11
  Percent Not Converging      :     0.27
  
  
  ***************************
  Subcatchment Runoff Summary
  ***************************
  
  ------------------------------------------------------------------------------------------------------------------------------
                            Total      Total      Total      Total     Imperv       Perv      Total       Total     Peak  Runoff
                           Precip      Runon       Evap      Infil     Runoff     Runoff     Runoff      Runoff   Runoff   Coeff
  Subcatchment                 mm         mm         mm         mm         mm         mm         mm    10^6 ltr      CMS
  ------------------------------------------------------------------------------------------------------------------------------
  SC01                       7.52       0.00       0.00       0.00       7.43       0.00       7.43        2.45     0.58   0.989
  SC02                       7.52       0.00       0.00       0.00       7.43       0.00       7.43        1.69     0.39   0.988
  SC03                       7.52       0.00       0.00       0.00       7.45       0.00       7.45        1.34     0.35   0.991
  SC04                       7.52       0.00       0.00       0.00       7.33       0.00       7.33        0.51     0.09   0.975
  SC05                       7.52       0.00       0.00       0.00       7.43       0.00       7.43        1.16     0.27   0.988
  SC06                       7.52       0.00       0.00       0.00       7.28       0.00       7.28        2.37     0.38   0.969
  SC07                       7.52       0.00       0.00       0.00       7.33       0.00       7.33        0.35     0.06   0.975
  SC08                       7.52       0.00       0.00       0.00       7.40       0.00       7.40        2.07     0.43   0.985
  SC09                       7.52       0.00       0.00       0.00       7.38       0.00       7.38        0.51     0.10   0.982
  SC010                      7.52       0.00       0.00       0.00       7.41       0.00       7.41        0.87     0.18   0.985
  
  
  ******************
  Node Depth Summary
  ******************
  
  ---------------------------------------------------------------------------------
                                 Average  Maximum  Maximum  Time of Max    Reported
                                   Depth    Depth      HGL   Occurrence   Max Depth
  Node                 Type       Meters   Meters   Meters  days hr:min      Meters
  ---------------------------------------------------------------------------------
  J1                   JUNCTION     0.08     0.18    34.18     0  01:35        0.18
  J3                   JUNCTION     0.10     0.13    18.13     0  04:55        0.13
  CSO7                 JUNCTION     0.14     1.20    35.20     0  01:40        1.18
  J5                   JUNCTION     0.07     0.14    32.14     0  01:45        0.14
  CSO9                 JUNCTION     0.16     1.16    41.16     0  01:39        1.16
  J8                   JUNCTION     0.11     0.23    36.23     0  01:47        0.23
  CSO8                 JUNCTION     0.19     1.58    33.58     0  01:37        1.58
  J10                  JUNCTION     0.10     0.27    29.27     0  01:37        0.27
  J13                  JUNCTION     0.07     0.17    29.17     0  01:35        0.17
  J15                  JUNCTION     0.16     0.30    15.30     0  01:40        0.30
  J16                  JUNCTION     0.07     0.19    30.19     0  01:34        0.19
  CSO10                JUNCTION     0.14     0.87    30.87     0  01:32        0.78
  J12                  JUNCTION     0.36     0.62    26.62     0  07:32        0.62
  J4                   JUNCTION     0.15     1.01    34.01     0  01:40        0.74
  J6                   JUNCTION     0.06     0.07    25.07     0  05:20        0.07
  J2                   JUNCTION     0.07     0.08    25.08     0  03:48        0.08
  J19                  JUNCTION     0.14     0.17     8.17     0  02:15        0.17
  J9                   JUNCTION     0.09     0.11    29.11     0  04:50        0.11
  J14                  JUNCTION     0.09     0.15    20.15     0  07:41        0.15
  J17                  JUNCTION     0.04     0.07    20.07     0  05:41        0.07
  J7                   JUNCTION     0.09     0.21    39.21     0  01:42        0.21
  J11                  JUNCTION     0.10     0.28    31.28     0  01:39        0.28
  J18                  JUNCTION     0.06     0.16    29.16     0  01:38        0.16
  Out_to_WWTP          OUTFALL      0.14     0.17     6.17     0  03:39        0.17
  T5                   STORAGE      3.55     5.00    32.00     0  03:08        5.00
  T4                   STORAGE      3.16     4.55    31.55     0  05:07        4.55
  T6                   STORAGE      3.78     5.00    36.00     0  02:23        5.00
  T3                   STORAGE      3.22     4.62    26.62     0  07:37        4.62
  T2                   STORAGE      3.32     4.67    25.67     0  07:03        4.67
  T1                   STORAGE      3.23     5.00    15.00     0  02:14        5.00
  
  
  *******************
  Node Inflow Summary
  *******************
  
  -------------------------------------------------------------------------------------------------
                                  Maximum  Maximum                  Lateral       Total        Flow
                                  Lateral    Total  Time of Max      Inflow      Inflow     Balance
                                   Inflow   Inflow   Occurrence      Volume      Volume       Error
  Node                 Type           CMS      CMS  days hr:min    10^6 ltr    10^6 ltr     Percent
  -------------------------------------------------------------------------------------------------
  J1                   JUNCTION     0.283    0.283     0  01:35        1.72        1.72       0.004
  J3                   JUNCTION     0.000    0.182     0  04:51           0        2.89       1.245
  CSO7                 JUNCTION     0.070    0.070     0  01:44       0.639       0.639       0.074
  J5                   JUNCTION     0.092    0.163     0  01:44       0.633        1.27       0.097
  CSO9                 JUNCTION     0.105    0.105     0  01:40       0.705       0.705       0.049
  J8                   JUNCTION     0.411    0.515     0  01:46        3.31        4.01       0.104
  CSO8                 JUNCTION     0.444    0.444     0  01:37        2.37        2.37       0.017
  J10                  JUNCTION     0.360    0.779     0  01:35        1.73        4.09       0.080
  J13                  JUNCTION     0.403    0.403     0  01:35        2.16        2.16      -0.269
  J15                  JUNCTION     0.000    0.832     0  01:36           0        7.21       1.031
  J16                  JUNCTION     0.596    0.596     0  01:34        3.01        3.01      -0.020
  CSO10                JUNCTION     0.189    0.189     0  01:37        1.01        1.01       0.017
  J12                  JUNCTION     0.000    0.811     0  01:37           0        5.72       7.991
  J4                   JUNCTION     0.000    0.070     0  01:43           0       0.638       0.521
  J6                   JUNCTION     0.000    0.027     0  05:10           0       0.546       0.434
  J2                   JUNCTION     0.000    0.039     0  03:08           0       0.868       0.582
  J19                  JUNCTION     0.000    0.271     0  02:14           0         5.6       0.179
  J9                   JUNCTION     0.000    0.075     0  02:40           0        1.53       1.189
  J14                  JUNCTION     0.000    0.119     0  07:45           0        1.49       0.486
  J17                  JUNCTION     0.000    0.032     0  05:40           0       0.338       1.226
  J7                   JUNCTION     0.000    0.105     0  01:40           0       0.705       0.450
  J11                  JUNCTION     0.000    0.444     0  01:37           0        2.36       0.273
  J18                  JUNCTION     0.000    0.189     0  01:37           0        1.01       0.084
  Out_to_WWTP          OUTFALL      0.000    0.271     0  02:15           0        5.59       0.000
  T5                   STORAGE      0.000    0.283     0  01:35           0        1.72      30.163
  T4                   STORAGE      0.000    0.162     0  01:45           0        1.27      31.770
  T6                   STORAGE      0.000    0.514     0  01:47           0        4.01      22.642
  T3                   STORAGE      0.000    0.804     0  01:40           0         5.3      32.104
  T2                   STORAGE      0.000    0.403     0  01:35           0        2.16      70.145
  T1                   STORAGE      0.000    0.817     0  01:40           0        7.13       6.943
  
  
  **********************
  Node Surcharge Summary
  **********************
  
  Surcharging occurs when water rises above the top of the highest conduit.
  ---------------------------------------------------------------------
                                               Max. Height   Min. Depth
                                   Hours       Above Crown    Below Rim
  Node                 Type      Surcharged         Meters       Meters
  ---------------------------------------------------------------------
  CSO7                 JUNCTION        0.43          0.945        0.000
  CSO9                 JUNCTION        0.49          0.840        0.842
  CSO8                 JUNCTION        0.49          1.123        0.424
  CSO10                JUNCTION        0.31          0.430        0.130
  J4                   JUNCTION        0.40          0.708        0.992
  
  
  *********************
  Node Flooding Summary
  *********************
  
  Flooding refers to all water that overflows a node, whether it ponds or not.
  --------------------------------------------------------------------------
                                                             Total   Maximum
                                 Maximum   Time of Max       Flood    Ponded
                        Hours       Rate    Occurrence      Volume     Depth
  Node                 Flooded       CMS   days hr:min    10^6 ltr    Meters
  --------------------------------------------------------------------------
  CSO7                    0.01     0.004      0  01:40       0.000     0.000
  T5                      0.67     0.074      0  03:08       0.055     0.000
  T6                      2.76     0.323      0  03:01       1.220     0.000
  T1                      1.27     0.247      0  03:02       0.695     0.000
  
  
  **********************
  Storage Volume Summary
  **********************
  
  --------------------------------------------------------------------------------------------------
                         Average     Avg  Evap Exfil       Maximum     Max    Time of Max    Maximum
                          Volume    Pcnt  Pcnt  Pcnt        Volume    Pcnt     Occurrence    Outflow
  Storage Unit           1000 m3    Full  Loss  Loss       1000 m3    Full    days hr:min        CMS
  --------------------------------------------------------------------------------------------------
  T5                       0.355      71     0     0         0.500     100       0  03:08      0.039
  T4                       0.316      63     0     0         0.455      91       0  05:07      0.027
  T6                       0.454      76     0     0         0.600     100       0  02:23      0.075
  T3                       1.676      64     0     0         2.404      92       0  07:37      0.145
  T2                       0.664      66     0     0         0.935      93       0  07:03      0.032
  T1                       0.452      65     0     0         0.700     100       0  02:14      0.271
  
  
  ***********************
  Outfall Loading Summary
  ***********************
  
  -----------------------------------------------------------
                         Flow       Avg       Max       Total
                         Freq      Flow      Flow      Volume
  Outfall Node           Pcnt       CMS       CMS    10^6 ltr
  -----------------------------------------------------------
  Out_to_WWTP           99.01     0.200     0.271       5.591
  -----------------------------------------------------------
  System                99.01     0.200     0.271       5.591
  
  
  ********************
  Link Flow Summary
  ********************
  
  -----------------------------------------------------------------------------
                                 Maximum  Time of Max   Maximum    Max/    Max/
                                  |Flow|   Occurrence   |Veloc|    Full    Full
  Link                 Type          CMS  days hr:min     m/sec    Flow   Depth
  -----------------------------------------------------------------------------
  C1                   CONDUIT     0.039     0  03:48      1.06    0.01    0.11
  C6                   CONDUIT     0.070     0  01:43      1.28    1.12    0.73
  C2                   CONDUIT     0.027     0  05:20      0.98    0.03    0.17
  C9                   CONDUIT     0.105     0  01:42      1.26    0.36    0.44
  C16                  CONDUIT     0.442     0  01:39      1.70    0.04    0.14
  C3                   CONDUIT     0.119     0  07:46      1.81    0.05    0.14
  C19                  CONDUIT     0.029     0  05:41      0.63    0.01    0.17
  C11                  CONDUIT     0.178     0  04:55      1.76    0.01    0.10
  C20                  CONDUIT     0.595     0  01:34      2.86    0.02    0.12
  C22                  CONDUIT     0.188     0  01:38      1.57    0.09    0.29
  C12                  CONDUIT     0.075     0  04:50      0.72    0.01    0.18
  C17                  CONDUIT     0.776     0  01:37      2.93    0.04    0.17
  C10                  CONDUIT     0.514     0  01:47      1.66    0.05    0.58
  C13                  CONDUIT     0.804     0  01:40      1.52    0.05    0.66
  C18                  CONDUIT     0.403     0  01:35      1.72    0.02    0.54
  C23                  CONDUIT     0.817     0  01:40      1.32    0.09    0.60
  C4                   CONDUIT     0.283     0  01:35      1.98    0.07    0.59
  C7                   CONDUIT     0.162     0  01:45      1.43    0.04    0.57
  C14                  CONDUIT     0.271     0  02:15      2.08    0.02    0.09
  C5                   CONDUIT     0.070     0  01:43      1.37    1.20    1.00
  C8                   CONDUIT     0.105     0  01:40      1.51    1.33    0.82
  C15                  CONDUIT     0.444     0  01:37      3.17    1.41    0.81
  C21                  CONDUIT     0.189     0  01:37      1.76    1.08    0.68
  V4                   ORIFICE     0.027     0  05:10                      0.35
  V5                   ORIFICE     0.039     0  03:08                      1.00
  V1                   ORIFICE     0.271     0  02:14                      1.00
  V6                   ORIFICE     0.075     0  02:40                      0.43
  V3                   ORIFICE     0.119     0  07:45                      0.65
  V2                   ORIFICE     0.032     0  05:40                      0.24
  
  
  ***************************
  Flow Classification Summary
  ***************************
  
  -------------------------------------------------------------------------------------
                      Adjusted    ---------- Fraction of Time in Flow Class ---------- 
                       /Actual         Up    Down  Sub   Sup   Up    Down  Norm  Inlet 
  Conduit               Length    Dry  Dry   Dry   Crit  Crit  Crit  Crit  Ltd   Ctrl  
  -------------------------------------------------------------------------------------
  C1                      1.00   0.00  0.00  0.00  0.00  1.00  0.00  0.00  0.94  0.00
  C6                      1.00   0.00  0.00  0.00  0.08  0.92  0.00  0.00  0.00  0.00
  C2                      1.00   0.00  0.00  0.00  0.11  0.89  0.00  0.00  0.95  0.00
  C9                      1.00   0.00  0.00  0.00  1.00  0.00  0.00  0.00  1.00  0.00
  C16                     1.00   0.00  0.00  0.00  0.57  0.43  0.00  0.00  0.46  0.00
  C3                      1.00   0.00  0.00  0.00  0.05  0.94  0.00  0.00  0.80  0.00
  C19                     1.00   0.00  0.00  0.00  1.00  0.00  0.00  0.00  1.00  0.00
  C11                     1.00   0.00  0.00  0.00  0.35  0.65  0.00  0.00  1.00  0.00
  C20                     1.00   0.00  0.00  0.00  0.54  0.46  0.00  0.00  0.98  0.00
  C22                     1.00   0.00  0.00  0.00  0.73  0.27  0.00  0.00  1.00  0.00
  C12                     1.00   0.00  0.00  0.00  1.00  0.00  0.00  0.00  1.00  0.00
  C17                     1.00   0.00  0.00  0.00  0.57  0.43  0.00  0.00  0.92  0.00
  C10                     1.00   0.00  0.00  0.00  0.96  0.04  0.00  0.00  0.98  0.00
  C13                     1.00   0.00  0.00  0.00  0.84  0.16  0.00  0.00  0.32  0.00
  C18                     1.00   0.00  0.00  0.00  0.94  0.06  0.00  0.00  0.97  0.00
  C23                     1.00   0.00  0.00  0.00  0.84  0.16  0.00  0.00  0.94  0.00
  C4                      1.00   0.00  0.00  0.00  0.96  0.04  0.00  0.00  0.98  0.00
  C7                      1.00   0.00  0.00  0.00  0.94  0.06  0.00  0.00  0.97  0.00
  C14                     1.00   0.00  0.00  0.00  0.00  0.99  0.00  0.00  0.31  0.00
  C5                      1.00   0.00  0.00  0.00  0.92  0.08  0.00  0.00  0.92  0.00
  C8                      1.00   0.00  0.00  0.00  0.09  0.91  0.00  0.00  0.00  0.00
  C15                     1.00   0.00  0.00  0.00  0.00  1.00  0.00  0.00  0.00  0.00
  C21                     1.00   0.00  0.00  0.00  0.01  0.99  0.00  0.00  0.00  0.00
  
  
  *************************
  Conduit Surcharge Summary
  *************************
  
  ----------------------------------------------------------------------------
                                                           Hours        Hours 
                         --------- Hours Full --------   Above Full   Capacity
  Conduit                Both Ends  Upstream  Dnstream   Normal Flow   Limited
  ----------------------------------------------------------------------------
  C6                          0.01      0.40      0.01      0.24         0.01
  C10                         0.01      0.01      6.19      0.01         0.01
  C13                         0.01      0.01      5.82      0.01         0.01
  C18                         0.01      0.01      5.93      0.01         0.01
  C23                         0.01      0.01      6.24      0.01         0.01
  C4                          0.01      0.01      6.32      0.01         0.01
  C7                          0.01      0.01      6.13      0.01         0.01
  C5                          0.42      0.43      0.55      0.46         0.36
  C8                          0.01      0.49      0.01      0.49         0.01
  C15                         0.01      0.49      0.01      0.53         0.01
  C21                         0.01      0.31      0.01      0.25         0.01
  

  Analysis begun on:  Fri Sep  3 19:07:47 2021
  Analysis ended on:  Fri Sep  3 19:07:47 2021
  Total elapsed time: < 1 sec