
  EPA STORM WATER MANAGEMENT MODEL - VERSION 5.1 (Build 5.3.0.dev0)
  --------------------------------------------------------------

  
  *********************************************************
  NOTE: The summary statistics displayed in this report are
  based on results found at every computational time step,  
  not just on results from each reporting time step.
  *********************************************************
  
  ****************
  Analysis Options
  ****************
  Flow Units ............... CMS
  Process Models:
    Rainfall/Runoff ........ YES
    RDII ................... NO
    Snowmelt ............... NO
    Groundwater ............ NO
    Flow Routing ........... YES
    Ponding Allowed ........ YES
    Water Quality .......... NO
  Infiltration Method ...... HORTON
  Flow Routing Method ...... DYNWAVE
  Surcharge Method ......... EXTRAN
  Starting Date ............ 08/28/2015 08:00:00
  Ending Date .............. 08/28/2015 15:50:00
  Antecedent Dry Days ...... 0.0
  Report Time Step ......... 00:01:00
  Wet Time Step ............ 00:01:00
  Dry Time Step ............ 00:01:00
  Routing Time Step ........ 5.00 sec
  Variable Time Step ....... YES
  Maximum Trials ........... 8
  Number of Threads ........ 1
  Head Tolerance ........... 0.001500 m
  
  
  **************************        Volume         Depth
  Runoff Quantity Continuity     hectare-m            mm
  **************************     ---------       -------
  Total Precipitation ......         2.859        15.864
  Evaporation Loss .........         0.000         0.000
  Infiltration Loss ........         0.000         0.000
  Surface Runoff ...........         2.835        15.735
  Final Storage ............         0.024         0.131
  Continuity Error (%) .....        -0.008
  
  
  **************************        Volume        Volume
  Flow Routing Continuity        hectare-m      10^6 ltr
  **************************     ---------     ---------
  Dry Weather Inflow .......         0.396         3.955
  Wet Weather Inflow .......         2.835        28.354
  Groundwater Inflow .......         0.000         0.000
  RDII Inflow ..............         0.000         0.000
  External Inflow ..........         0.000         0.000
  External Outflow .........         0.580         5.802
  Flooding Loss ............         1.599        15.991
  Evaporation Loss .........         0.000         0.000
  Exfiltration Loss ........         0.000         0.000
  Initial Stored Volume ....         0.000         0.000
  Final Stored Volume ......         0.809         8.091
  Continuity Error (%) .....         7.504
  
  
  *************************
  Highest Continuity Errors
  *************************
  Node T2 (23.22%)
  Node T3 (17.95%)
  Node T4 (16.32%)
  Node T5 (13.04%)
  Node T6 (10.08%)
  
  
  ***************************
  Time-Step Critical Elements
  ***************************
  None
  
  
  ********************************
  Highest Flow Instability Indexes
  ********************************
  All links are stable.
  
  
  *************************
  Routing Time Step Summary
  *************************
  Minimum Time Step           :     4.67 sec
  Average Time Step           :     5.00 sec
  Maximum Time Step           :     5.00 sec
  Percent in Steady State     :     0.00
  Average Iterations per Step :     2.19
  Percent Not Converging      :     0.55
  
  
  ***************************
  Subcatchment Runoff Summary
  ***************************
  
  ------------------------------------------------------------------------------------------------------------------------------
                            Total      Total      Total      Total     Imperv       Perv      Total       Total     Peak  Runoff
                           Precip      Runon       Evap      Infil     Runoff     Runoff     Runoff      Runoff   Runoff   Coeff
  Subcatchment                 mm         mm         mm         mm         mm         mm         mm    10^6 ltr      CMS
  ------------------------------------------------------------------------------------------------------------------------------
  SC01                      15.86       0.00       0.00       0.00      15.78       0.00      15.78        5.21     1.33   0.995
  SC02                      15.86       0.00       0.00       0.00      15.77       0.00      15.77        3.59     0.91   0.994
  SC03                      15.86       0.00       0.00       0.00      15.80       0.00      15.80        2.84     0.77   0.996
  SC04                      15.86       0.00       0.00       0.00      15.67       0.00      15.67        1.08     0.23   0.988
  SC05                      15.86       0.00       0.00       0.00      15.77       0.00      15.77        2.46     0.62   0.994
  SC06                      15.86       0.00       0.00       0.00      15.62       0.00      15.62        5.08     1.01   0.984
  SC07                      15.86       0.00       0.00       0.00      15.67       0.00      15.67        0.74     0.16   0.988
  SC08                      15.86       0.00       0.00       0.00      15.75       0.00      15.75        4.41     1.05   0.993
  SC09                      15.86       0.00       0.00       0.00      15.72       0.00      15.72        1.08     0.25   0.991
  SC010                     15.86       0.00       0.00       0.00      15.75       0.00      15.75        1.85     0.45   0.993
  
  
  ******************
  Node Depth Summary
  ******************
  
  ---------------------------------------------------------------------------------
                                 Average  Maximum  Maximum  Time of Max    Reported
                                   Depth    Depth      HGL   Occurrence   Max Depth
  Node                 Type       Meters   Meters   Meters  days hr:min      Meters
  ---------------------------------------------------------------------------------
  J1                   JUNCTION     0.09     0.27    34.27     0  01:44        0.27
  J3                   JUNCTION     0.10     0.13    18.13     0  04:12        0.13
  CSO7                 JUNCTION     0.33     1.20    35.20     0  01:29        1.20
  J5                   JUNCTION     0.08     0.19    32.19     0  01:49        0.19
  CSO9                 JUNCTION     0.43     2.00    42.00     0  01:28        2.00
  J8                   JUNCTION     0.14     0.35    36.35     0  01:51        0.35
  CSO8                 JUNCTION     0.44     2.00    34.00     0  01:26        2.00
  J10                  JUNCTION     0.12     0.34    29.34     0  01:44        0.34
  J13                  JUNCTION     0.08     0.25    29.25     0  01:44        0.25
  J15                  JUNCTION     0.19     0.43    15.43     0  01:47        0.43
  J16                  JUNCTION     0.09     0.28    30.28     0  01:44        0.28
  CSO10                JUNCTION     0.24     1.00    31.00     0  01:24        1.00
  J12                  JUNCTION     0.75     1.02    27.02     0  02:40        1.02
  J4                   JUNCTION     0.24     1.55    34.55     0  01:29        0.76
  J6                   JUNCTION     0.06     0.07    25.07     0  03:10        0.07
  J2                   JUNCTION     0.07     0.08    25.08     0  02:59        0.08
  J19                  JUNCTION     0.14     0.17     8.17     0  01:47        0.17
  J9                   JUNCTION     0.09     0.11    29.11     0  05:06        0.11
  J14                  JUNCTION     0.10     0.15    20.15     0  05:10        0.15
  J17                  JUNCTION     0.05     0.07    20.07     0  06:11        0.07
  J7                   JUNCTION     0.10     0.23    39.23     0  02:24        0.23
  J11                  JUNCTION     0.12     0.30    31.30     0  02:23        0.30
  J18                  JUNCTION     0.07     0.16    29.16     0  02:04        0.16
  Out_to_WWTP          OUTFALL      0.14     0.17     6.17     0  03:50        0.17
  T5                   STORAGE      3.81     5.00    32.00     0  01:52        5.00
  T4                   STORAGE      3.77     5.00    32.00     0  02:20        5.00
  T6                   STORAGE      3.91     5.00    36.00     0  01:50        5.00
  T3                   STORAGE      3.81     5.00    27.00     0  02:41        5.00
  T2                   STORAGE      3.93     5.00    26.00     0  02:03        5.00
  T1                   STORAGE      3.44     5.00    15.00     0  01:45        5.00
  
  
  *******************
  Node Inflow Summary
  *******************
  
  -------------------------------------------------------------------------------------------------
                                  Maximum  Maximum                  Lateral       Total        Flow
                                  Lateral    Total  Time of Max      Inflow      Inflow     Balance
                                   Inflow   Inflow   Occurrence      Volume      Volume       Error
  Node                 Type           CMS      CMS  days hr:min    10^6 ltr    10^6 ltr     Percent
  -------------------------------------------------------------------------------------------------
  J1                   JUNCTION     0.639    0.639     0  01:44        3.02        3.02      -0.003
  J3                   JUNCTION     0.000    0.188     0  03:20           0        3.11       0.945
  CSO7                 JUNCTION     0.166    0.166     0  01:49        1.03        1.03       0.051
  J5                   JUNCTION     0.232    0.305     0  01:49        1.21           2       0.060
  CSO9                 JUNCTION     0.254    0.254     0  01:46        1.28        1.28       0.034
  J8                   JUNCTION     1.036    1.163     0  01:51        6.02        7.07       0.058
  CSO8                 JUNCTION     1.064    1.064     0  01:45         4.7         4.7       0.010
  J10                  JUNCTION     0.779    1.265     0  01:43        3.23        6.88      -0.046
  J13                  JUNCTION     0.922    0.922     0  01:44        4.06        4.06      -0.165
  J15                  JUNCTION     0.000    1.665     0  01:44           0        10.8       0.574
  J16                  JUNCTION     1.352    1.352     0  01:44        5.76        5.76      -0.025
  CSO10                JUNCTION     0.450    0.450     0  01:45        1.99        1.99       0.006
  J12                  JUNCTION     0.000    1.291     0  01:44           0        8.53      10.480
  J4                   JUNCTION     0.000    0.081     0  01:29           0       0.798       0.401
  J6                   JUNCTION     0.000    0.028     0  02:20           0       0.609       0.649
  J2                   JUNCTION     0.000    0.039     0  01:52           0       0.903       0.561
  J19                  JUNCTION     0.000    0.271     0  01:45           0        5.81       0.174
  J9                   JUNCTION     0.000    0.075     0  01:50           0        1.64       1.163
  J14                  JUNCTION     0.000    0.124     0  03:50           0        1.61       0.270
  J17                  JUNCTION     0.000    0.033     0  02:50           0       0.373       1.168
  J7                   JUNCTION     0.000    0.127     0  02:24           0        1.05       0.299
  J11                  JUNCTION     0.000    0.486     0  02:23           0        3.66       0.185
  J18                  JUNCTION     0.000    0.202     0  02:04           0        1.54       0.046
  Out_to_WWTP          OUTFALL      0.000    0.271     0  01:47           0         5.8       0.000
  T5                   STORAGE      0.000    0.638     0  01:44           0        3.02      14.991
  T4                   STORAGE      0.000    0.305     0  01:49           0           2      19.497
  T6                   STORAGE      0.000    1.162     0  01:51           0        7.07      11.211
  T3                   STORAGE      0.000    1.279     0  01:46           0        7.72      21.871
  T2                   STORAGE      0.000    0.921     0  01:44           0        4.06      30.244
  T1                   STORAGE      0.000    1.637     0  01:47           0        10.7       4.553
  
  
  **********************
  Node Surcharge Summary
  **********************
  
  Surcharging occurs when water rises above the top of the highest conduit.
  ---------------------------------------------------------------------
                                               Max. Height   Min. Depth
                                   Hours       Above Crown    Below Rim
  Node                 Type      Surcharged         Meters       Meters
  ---------------------------------------------------------------------
  CSO7                 JUNCTION        1.75          0.945        0.000
  CSO9                 JUNCTION        1.75          1.682        0.000
  CSO8                 JUNCTION        1.75          1.547        0.000
  CSO10                JUNCTION        1.23          0.560        0.000
  J4                   JUNCTION        1.73          1.252        0.448
  
  
  *********************
  Node Flooding Summary
  *********************
  
  Flooding refers to all water that overflows a node, whether it ponds or not.
  --------------------------------------------------------------------------
                                                             Total   Maximum
                                 Maximum   Time of Max       Flood    Ponded
                        Hours       Rate    Occurrence      Volume     Depth
  Node                 Flooded       CMS   days hr:min    10^6 ltr    Meters
  --------------------------------------------------------------------------
  CSO7                    1.59     0.094      0  01:49       0.236     0.000
  CSO9                    0.93     0.126      0  01:46       0.231     0.000
  CSO8                    0.96     0.578      0  01:45       1.044     0.000
  CSO10                   0.97     0.248      0  01:45       0.449     0.000
  T5                      2.04     0.538      0  01:52       1.324     0.000
  T4                      2.83     0.193      0  02:20       0.618     0.000
  T6                      3.26     1.087      0  01:51       4.209     0.000
  T3                      4.57     0.762      0  02:43       2.097     0.000
  T2                      3.98     0.634      0  02:03       1.751     0.000
  T1                      1.91     1.366      0  01:47       4.031     0.000
  
  
  **********************
  Storage Volume Summary
  **********************
  
  --------------------------------------------------------------------------------------------------
                         Average     Avg  Evap Exfil       Maximum     Max    Time of Max    Maximum
                          Volume    Pcnt  Pcnt  Pcnt        Volume    Pcnt     Occurrence    Outflow
  Storage Unit           1000 m3    Full  Loss  Loss       1000 m3    Full    days hr:min        CMS
  --------------------------------------------------------------------------------------------------
  T5                       0.381      76     0     0         0.500     100       0  01:52      0.039
  T4                       0.377      75     0     0         0.500     100       0  02:20      0.028
  T6                       0.469      78     0     0         0.600     100       0  01:50      0.075
  T3                       1.981      76     0     0         2.600     100       0  02:41      0.204
  T2                       0.787      79     0     0         1.000     100       0  02:03      0.033
  T1                       0.482      69     0     0         0.700     100       0  01:45      0.271
  
  
  ***********************
  Outfall Loading Summary
  ***********************
  
  -----------------------------------------------------------
                         Flow       Avg       Max       Total
                         Freq      Flow      Flow      Volume
  Outfall Node           Pcnt       CMS       CMS    10^6 ltr
  -----------------------------------------------------------
  Out_to_WWTP           99.01     0.208     0.271       5.802
  -----------------------------------------------------------
  System                99.01     0.208     0.271       5.802
  
  
  ********************
  Link Flow Summary
  ********************
  
  -----------------------------------------------------------------------------
                                 Maximum  Time of Max   Maximum    Max/    Max/
                                  |Flow|   Occurrence   |Veloc|    Full    Full
  Link                 Type          CMS  days hr:min     m/sec    Flow   Depth
  -----------------------------------------------------------------------------
  C1                   CONDUIT     0.039     0  02:40      1.12    0.01    0.11
  C6                   CONDUIT     0.073     0  01:49      1.29    1.16    0.81
  C2                   CONDUIT     0.028     0  03:04      1.01    0.03    0.17
  C9                   CONDUIT     0.127     0  02:24      1.31    0.43    0.58
  C16                  CONDUIT     0.486     0  01:30      1.80    0.05    0.16
  C3                   CONDUIT     0.121     0  03:20      1.82    0.05    0.14
  C19                  CONDUIT     0.030     0  06:11      0.66    0.01    0.24
  C11                  CONDUIT     0.181     0  04:12      1.78    0.01    0.13
  C20                  CONDUIT     1.351     0  01:44      3.65    0.04    0.18
  C22                  CONDUIT     0.202     0  02:04      1.62    0.09    0.37
  C12                  CONDUIT     0.075     0  05:06      0.59    0.01    0.28
  C17                  CONDUIT     1.260     0  01:44      3.38    0.06    0.32
  C10                  CONDUIT     1.162     0  01:51      1.66    0.12    0.62
  C13                  CONDUIT     1.279     0  01:46      1.81    0.08    0.75
  C18                  CONDUIT     0.921     0  01:44      1.72    0.03    0.56
  C23                  CONDUIT     1.637     0  01:47      1.51    0.18    0.64
  C4                   CONDUIT     0.638     0  01:44      1.98    0.15    0.63
  C7                   CONDUIT     0.305     0  01:49      1.43    0.07    0.59
  C14                  CONDUIT     0.271     0  01:47      2.08    0.02    0.09
  C5                   CONDUIT     0.081     0  01:29      1.57    1.38    1.00
  C8                   CONDUIT     0.127     0  02:24      1.77    1.60    0.86
  C15                  CONDUIT     0.486     0  02:23      3.44    1.55    0.83
  C21                  CONDUIT     0.202     0  02:04      1.84    1.16    0.69
  V4                   ORIFICE     0.028     0  02:20                      0.35
  V5                   ORIFICE     0.039     0  01:52                      1.00
  V1                   ORIFICE     0.271     0  01:45                      1.00
  V6                   ORIFICE     0.075     0  01:50                      0.43
  V3                   ORIFICE     0.124     0  03:50                      0.65
  V2                   ORIFICE     0.033     0  02:50                      0.24
  
  
  ***************************
  Flow Classification Summary
  ***************************
  
  -------------------------------------------------------------------------------------
                      Adjusted    ---------- Fraction of Time in Flow Class ---------- 
                       /Actual         Up    Down  Sub   Sup   Up    Down  Norm  Inlet 
  Conduit               Length    Dry  Dry   Dry   Crit  Crit  Crit  Crit  Ltd   Ctrl  
  -------------------------------------------------------------------------------------
  C1                      1.00   0.00  0.00  0.00  0.00  1.00  0.00  0.00  0.94  0.00
  C6                      1.00   0.00  0.00  0.00  0.24  0.76  0.00  0.00  0.00  0.00
  C2                      1.00   0.00  0.00  0.00  0.11  0.89  0.00  0.00  0.95  0.00
  C9                      1.00   0.00  0.00  0.00  1.00  0.00  0.00  0.00  1.00  0.00
  C16                     1.00   0.00  0.00  0.00  0.54  0.46  0.00  0.00  0.51  0.00
  C3                      1.00   0.00  0.00  0.00  0.05  0.95  0.00  0.00  0.78  0.00
  C19                     1.00   0.00  0.00  0.00  1.00  0.00  0.00  0.00  1.00  0.00
  C11                     1.00   0.00  0.00  0.00  0.35  0.65  0.00  0.00  1.00  0.00
  C20                     1.00   0.00  0.00  0.00  0.53  0.47  0.00  0.00  0.98  0.00
  C22                     1.00   0.00  0.00  0.00  0.77  0.23  0.00  0.00  1.00  0.00
  C12                     1.00   0.00  0.00  0.00  1.00  0.00  0.00  0.00  1.00  0.00
  C17                     1.00   0.00  0.00  0.00  0.70  0.30  0.00  0.00  0.92  0.00
  C10                     1.00   0.00  0.00  0.00  0.96  0.04  0.00  0.00  0.97  0.00
  C13                     1.00   0.00  0.00  0.00  0.84  0.16  0.00  0.00  0.19  0.00
  C18                     1.00   0.00  0.00  0.00  0.94  0.06  0.00  0.00  0.97  0.00
  C23                     1.00   0.00  0.00  0.00  0.85  0.15  0.00  0.00  0.94  0.00
  C4                      1.00   0.00  0.00  0.00  0.96  0.04  0.00  0.00  0.98  0.00
  C7                      1.00   0.00  0.00  0.00  0.94  0.06  0.00  0.00  0.97  0.00
  C14                     1.00   0.00  0.00  0.00  0.00  0.99  0.00  0.00  0.32  0.00
  C5                      1.00   0.00  0.00  0.00  0.93  0.07  0.00  0.00  0.72  0.00
  C8                      1.00   0.00  0.00  0.00  0.24  0.76  0.00  0.00  0.00  0.00
  C15                     1.00   0.00  0.00  0.00  0.00  1.00  0.00  0.00  0.00  0.00
  C21                     1.00   0.00  0.00  0.00  0.02  0.98  0.00  0.00  0.00  0.00
  
  
  *************************
  Conduit Surcharge Summary
  *************************
  
  ----------------------------------------------------------------------------
                                                           Hours        Hours 
                         --------- Hours Full --------   Above Full   Capacity
  Conduit                Both Ends  Upstream  Dnstream   Normal Flow   Limited
  ----------------------------------------------------------------------------
  C6                          0.01      1.73      0.01      1.64         0.01
  C10                         0.01      0.01      6.30      0.01         0.01
  C13                         0.01      0.01      6.05      0.01         0.01
  C18                         0.01      0.01      6.17      0.01         0.01
  C23                         0.01      0.01      6.34      0.01         0.01
  C4                          0.01      0.01      6.42      0.01         0.01
  C7                          0.01      0.01      6.26      0.01         0.01
  C5                          1.73      1.75      1.83      1.77         1.70
  C8                          0.01      1.75      0.01      1.77         0.01
  C15                         0.01      1.75      0.01      1.78         0.01
  C21                         0.01      1.23      0.01      1.18         0.01
  

  Analysis begun on:  Fri Sep  3 19:11:38 2021
  Analysis ended on:  Fri Sep  3 19:11:38 2021
  Total elapsed time: < 1 sec