
  EPA STORM WATER MANAGEMENT MODEL - VERSION 5.1 (Build 5.3.0.dev0)
  --------------------------------------------------------------

  
  *********************************************************
  NOTE: The summary statistics displayed in this report are
  based on results found at every computational time step,  
  not just on results from each reporting time step.
  *********************************************************
  
  ****************
  Analysis Options
  ****************
  Flow Units ............... CMS
  Process Models:
    Rainfall/Runoff ........ YES
    RDII ................... NO
    Snowmelt ............... NO
    Groundwater ............ NO
    Flow Routing ........... YES
    Ponding Allowed ........ YES
    Water Quality .......... NO
  Infiltration Method ...... HORTON
  Flow Routing Method ...... DYNWAVE
  Surcharge Method ......... EXTRAN
  Starting Date ............ 08/28/2015 08:00:00
  Ending Date .............. 08/28/2015 15:50:00
  Antecedent Dry Days ...... 0.0
  Report Time Step ......... 00:01:00
  Wet Time Step ............ 00:01:00
  Dry Time Step ............ 00:01:00
  Routing Time Step ........ 5.00 sec
  Variable Time Step ....... YES
  Maximum Trials ........... 8
  Number of Threads ........ 1
  Head Tolerance ........... 0.001500 m
  
  
  **************************        Volume         Depth
  Runoff Quantity Continuity     hectare-m            mm
  **************************     ---------       -------
  Total Precipitation ......         2.031        11.270
  Evaporation Loss .........         0.000         0.000
  Infiltration Loss ........         0.000         0.000
  Surface Runoff ...........         2.008        11.141
  Final Storage ............         0.024         0.131
  Continuity Error (%) .....        -0.012
  
  
  **************************        Volume        Volume
  Flow Routing Continuity        hectare-m      10^6 ltr
  **************************     ---------     ---------
  Dry Weather Inflow .......         0.396         3.955
  Wet Weather Inflow .......         2.008        20.076
  Groundwater Inflow .......         0.000         0.000
  RDII Inflow ..............         0.000         0.000
  External Inflow ..........         0.000         0.000
  External Outflow .........         0.565         5.651
  Flooding Loss ............         0.785         7.855
  Evaporation Loss .........         0.000         0.000
  Exfiltration Loss ........         0.000         0.000
  Initial Stored Volume ....         0.000         0.000
  Final Stored Volume ......         0.808         8.085
  Continuity Error (%) .....        10.154
  
  
  *************************
  Highest Continuity Errors
  *************************
  Node T2 (31.39%)
  Node T3 (21.31%)
  Node T4 (20.37%)
  Node T5 (17.36%)
  Node T6 (13.46%)
  
  
  ***************************
  Time-Step Critical Elements
  ***************************
  None
  
  
  ********************************
  Highest Flow Instability Indexes
  ********************************
  All links are stable.
  
  
  *************************
  Routing Time Step Summary
  *************************
  Minimum Time Step           :     4.50 sec
  Average Time Step           :     5.00 sec
  Maximum Time Step           :     5.00 sec
  Percent in Steady State     :     0.00
  Average Iterations per Step :     2.24
  Percent Not Converging      :     0.69
  
  
  ***************************
  Subcatchment Runoff Summary
  ***************************
  
  ------------------------------------------------------------------------------------------------------------------------------
                            Total      Total      Total      Total     Imperv       Perv      Total       Total     Peak  Runoff
                           Precip      Runon       Evap      Infil     Runoff     Runoff     Runoff      Runoff   Runoff   Coeff
  Subcatchment                 mm         mm         mm         mm         mm         mm         mm    10^6 ltr      CMS
  ------------------------------------------------------------------------------------------------------------------------------
  SC01                      11.27       0.00       0.00       0.00      11.19       0.00      11.19        3.69     0.77   0.992
  SC02                      11.27       0.00       0.00       0.00      11.18       0.00      11.18        2.54     0.52   0.992
  SC03                      11.27       0.00       0.00       0.00      11.20       0.00      11.20        2.02     0.44   0.994
  SC04                      11.27       0.00       0.00       0.00      11.08       0.00      11.08        0.76     0.14   0.983
  SC05                      11.27       0.00       0.00       0.00      11.18       0.00      11.18        1.74     0.36   0.992
  SC06                      11.27       0.00       0.00       0.00      11.02       0.00      11.02        3.59     0.63   0.978
  SC07                      11.27       0.00       0.00       0.00      11.08       0.00      11.08        0.53     0.10   0.983
  SC08                      11.27       0.00       0.00       0.00      11.15       0.00      11.15        3.12     0.61   0.990
  SC09                      11.27       0.00       0.00       0.00      11.13       0.00      11.13        0.77     0.15   0.987
  SC010                     11.27       0.00       0.00       0.00      11.16       0.00      11.16        1.31     0.26   0.990
  
  
  ******************
  Node Depth Summary
  ******************
  
  ---------------------------------------------------------------------------------
                                 Average  Maximum  Maximum  Time of Max    Reported
                                   Depth    Depth      HGL   Occurrence   Max Depth
  Node                 Type       Meters   Meters   Meters  days hr:min      Meters
  ---------------------------------------------------------------------------------
  J1                   JUNCTION     0.08     0.20    34.20     0  02:33        0.20
  J3                   JUNCTION     0.10     0.13    18.13     0  03:22        0.13
  CSO7                 JUNCTION     0.23     1.20    35.20     0  02:15        1.20
  J5                   JUNCTION     0.07     0.16    32.16     0  02:36        0.16
  CSO9                 JUNCTION     0.29     2.00    42.00     0  02:25        2.00
  J8                   JUNCTION     0.13     0.29    36.29     0  02:38        0.29
  CSO8                 JUNCTION     0.32     2.00    34.00     0  02:23        2.00
  J10                  JUNCTION     0.11     0.29    29.29     0  02:32        0.29
  J13                  JUNCTION     0.07     0.20    29.20     0  02:33        0.20
  J15                  JUNCTION     0.17     0.35    15.35     0  02:36        0.35
  J16                  JUNCTION     0.08     0.22    30.22     0  02:33        0.22
  CSO10                JUNCTION     0.19     1.00    31.00     0  02:23        1.00
  J12                  JUNCTION     0.69     1.02    27.02     0  03:20        1.02
  J4                   JUNCTION     0.19     1.17    34.17     0  02:15        0.77
  J6                   JUNCTION     0.06     0.07    25.07     0  03:47        0.07
  J2                   JUNCTION     0.07     0.08    25.08     0  03:20        0.08
  J19                  JUNCTION     0.14     0.17     8.17     0  02:15        0.17
  J9                   JUNCTION     0.09     0.11    29.11     0  04:00        0.11
  J14                  JUNCTION     0.09     0.15    20.15     0  06:00        0.15
  J17                  JUNCTION     0.04     0.07    20.07     0  03:11        0.07
  J7                   JUNCTION     0.10     0.23    39.23     0  02:50        0.23
  J11                  JUNCTION     0.12     0.30    31.30     0  02:51        0.30
  J18                  JUNCTION     0.07     0.16    29.16     0  02:52        0.16
  Out_to_WWTP          OUTFALL      0.14     0.17     6.17     0  03:48        0.17
  T5                   STORAGE      3.64     5.00    32.00     0  02:32        5.00
  T4                   STORAGE      3.57     5.00    32.00     0  02:56        5.00
  T6                   STORAGE      3.82     5.00    36.00     0  02:17        5.00
  T3                   STORAGE      3.63     5.00    27.00     0  03:11        5.00
  T2                   STORAGE      3.71     5.00    26.00     0  02:46        5.00
  T1                   STORAGE      3.26     5.00    15.00     0  02:14        5.00
  
  
  *******************
  Node Inflow Summary
  *******************
  
  -------------------------------------------------------------------------------------------------
                                  Maximum  Maximum                  Lateral       Total        Flow
                                  Lateral    Total  Time of Max      Inflow      Inflow     Balance
                                   Inflow   Inflow   Occurrence      Volume      Volume       Error
  Node                 Type           CMS      CMS  days hr:min    10^6 ltr    10^6 ltr     Percent
  -------------------------------------------------------------------------------------------------
  J1                   JUNCTION     0.377    0.377     0  02:33        2.31        2.31      -0.013
  J3                   JUNCTION     0.000    0.188     0  03:20           0        2.91       1.005
  CSO7                 JUNCTION     0.106    0.106     0  02:36       0.817       0.817       0.058
  J5                   JUNCTION     0.143    0.214     0  02:36       0.892        1.64       0.068
  CSO9                 JUNCTION     0.153    0.153     0  02:35       0.964       0.964       0.037
  J8                   JUNCTION     0.660    0.787     0  02:37        4.53        5.47       0.066
  CSO8                 JUNCTION     0.623    0.623     0  02:34        3.42        3.42       0.005
  J10                  JUNCTION     0.453    0.941     0  02:31         2.4        5.67      -0.057
  J13                  JUNCTION     0.538    0.538     0  02:33        3.01        3.01      -0.204
  J15                  JUNCTION     0.000    1.109     0  02:33           0        8.85       0.694
  J16                  JUNCTION     0.785    0.785     0  02:32        4.25        4.25      -0.031
  CSO10                JUNCTION     0.264    0.264     0  02:34        1.45        1.45       0.018
  J12                  JUNCTION     0.000    1.013     0  02:32           0         7.3      12.519
  J4                   JUNCTION     0.000    0.071     0  02:36           0       0.755       0.445
  J6                   JUNCTION     0.000    0.028     0  03:00           0       0.562       0.705
  J2                   JUNCTION     0.000    0.039     0  02:32           0       0.882       0.575
  J19                  JUNCTION     0.000    0.271     0  02:14           0        5.66       0.174
  J9                   JUNCTION     0.000    0.075     0  02:20           0        1.61       1.094
  J14                  JUNCTION     0.000    0.124     0  03:20           0        1.47       0.297
  J17                  JUNCTION     0.000    0.033     0  03:10           0        0.35       1.246
  J7                   JUNCTION     0.000    0.127     0  02:50           0       0.939       0.338
  J11                  JUNCTION     0.000    0.486     0  02:51           0        3.28       0.209
  J18                  JUNCTION     0.000    0.202     0  02:52           0        1.39       0.051
  Out_to_WWTP          OUTFALL      0.000    0.271     0  02:16           0        5.65       0.000
  T5                   STORAGE      0.000    0.377     0  02:33           0        2.31      21.013
  T4                   STORAGE      0.000    0.214     0  02:36           0        1.64      25.575
  T6                   STORAGE      0.000    0.787     0  02:38           0        5.46      15.550
  T3                   STORAGE      0.000    1.004     0  02:35           0        6.49      27.088
  T2                   STORAGE      0.000    0.538     0  02:33           0        3.02      45.746
  T1                   STORAGE      0.000    1.093     0  02:36           0        8.79       5.286
  
  
  **********************
  Node Surcharge Summary
  **********************
  
  Surcharging occurs when water rises above the top of the highest conduit.
  ---------------------------------------------------------------------
                                               Max. Height   Min. Depth
                                   Hours       Above Crown    Below Rim
  Node                 Type      Surcharged         Meters       Meters
  ---------------------------------------------------------------------
  CSO7                 JUNCTION        1.01          0.945        0.000
  CSO9                 JUNCTION        1.18          1.682        0.000
  CSO8                 JUNCTION        1.15          1.547        0.000
  CSO10                JUNCTION        0.69          0.560        0.000
  J4                   JUNCTION        0.97          0.873        0.827
  
  
  *********************
  Node Flooding Summary
  *********************
  
  Flooding refers to all water that overflows a node, whether it ponds or not.
  --------------------------------------------------------------------------
                                                             Total   Maximum
                                 Maximum   Time of Max       Flood    Ponded
                        Hours       Rate    Occurrence      Volume     Depth
  Node                 Flooded       CMS   days hr:min    10^6 ltr    Meters
  --------------------------------------------------------------------------
  CSO7                    0.82     0.035      0  02:36       0.061     0.000
  CSO9                    0.43     0.026      0  02:34       0.025     0.000
  CSO8                    0.46     0.137      0  02:34       0.136     0.000
  CSO10                   0.48     0.062      0  02:34       0.063     0.000
  T5                      1.36     0.338      0  02:33       0.623     0.000
  T4                      2.04     0.164      0  02:56       0.288     0.000
  T6                      2.81     0.711      0  02:38       2.596     0.000
  T3                      3.95     0.624      0  03:11       1.003     0.000
  T2                      4.25     0.427      0  02:46       0.723     0.000
  T1                      1.42     0.823      0  02:36       2.338     0.000
  
  
  **********************
  Storage Volume Summary
  **********************
  
  --------------------------------------------------------------------------------------------------
                         Average     Avg  Evap Exfil       Maximum     Max    Time of Max    Maximum
                          Volume    Pcnt  Pcnt  Pcnt        Volume    Pcnt     Occurrence    Outflow
  Storage Unit           1000 m3    Full  Loss  Loss       1000 m3    Full    days hr:min        CMS
  --------------------------------------------------------------------------------------------------
  T5                       0.364      73     0     0         0.500     100       0  02:32      0.039
  T4                       0.357      71     0     0         0.500     100       0  02:56      0.028
  T6                       0.458      76     0     0         0.600     100       0  02:17      0.075
  T3                       1.886      73     0     0         2.600     100       0  03:11      0.250
  T2                       0.742      74     0     0         1.000     100       0  02:46      0.033
  T1                       0.457      65     0     0         0.700     100       0  02:14      0.271
  
  
  ***********************
  Outfall Loading Summary
  ***********************
  
  -----------------------------------------------------------
                         Flow       Avg       Max       Total
                         Freq      Flow      Flow      Volume
  Outfall Node           Pcnt       CMS       CMS    10^6 ltr
  -----------------------------------------------------------
  Out_to_WWTP           99.01     0.202     0.271       5.651
  -----------------------------------------------------------
  System                99.01     0.202     0.271       5.651
  
  
  ********************
  Link Flow Summary
  ********************
  
  -----------------------------------------------------------------------------
                                 Maximum  Time of Max   Maximum    Max/    Max/
                                  |Flow|   Occurrence   |Veloc|    Full    Full
  Link                 Type          CMS  days hr:min     m/sec    Flow   Depth
  -----------------------------------------------------------------------------
  C1                   CONDUIT     0.039     0  03:20      1.08    0.01    0.11
  C6                   CONDUIT     0.071     0  02:36      1.29    1.13    0.76
  C2                   CONDUIT     0.028     0  03:47      1.00    0.03    0.17
  C9                   CONDUIT     0.127     0  02:50      1.27    0.43    0.52
  C16                  CONDUIT     0.489     0  02:29      1.78    0.05    0.15
  C3                   CONDUIT     0.121     0  03:20      1.82    0.05    0.14
  C19                  CONDUIT     0.030     0  03:11      0.41    0.01    0.20
  C11                  CONDUIT     0.181     0  03:22      1.76    0.01    0.11
  C20                  CONDUIT     0.785     0  02:33      3.14    0.02    0.14
  C22                  CONDUIT     0.202     0  02:52      1.59    0.09    0.32
  C12                  CONDUIT     0.075     0  03:58      0.59    0.01    0.28
  C17                  CONDUIT     0.938     0  02:32      3.03    0.05    0.30
  C10                  CONDUIT     0.787     0  02:38      1.66    0.08    0.60
  C13                  CONDUIT     1.004     0  02:35      1.97    0.06    0.76
  C18                  CONDUIT     0.538     0  02:33      1.72    0.02    0.55
  C23                  CONDUIT     1.093     0  02:36      1.71    0.12    0.62
  C4                   CONDUIT     0.377     0  02:33      1.98    0.09    0.60
  C7                   CONDUIT     0.214     0  02:36      1.43    0.05    0.58
  C14                  CONDUIT     0.271     0  02:16      2.08    0.02    0.09
  C5                   CONDUIT     0.071     0  02:36      1.39    1.22    1.00
  C8                   CONDUIT     0.127     0  02:50      1.75    1.60    0.86
  C15                  CONDUIT     0.486     0  02:51      3.42    1.55    0.83
  C21                  CONDUIT     0.202     0  02:52      1.83    1.16    0.69
  V4                   ORIFICE     0.028     0  03:00                      0.35
  V5                   ORIFICE     0.039     0  02:32                      1.00
  V1                   ORIFICE     0.271     0  02:14                      1.00
  V6                   ORIFICE     0.075     0  02:20                      0.43
  V3                   ORIFICE     0.124     0  03:20                      0.65
  V2                   ORIFICE     0.033     0  03:10                      0.24
  
  
  ***************************
  Flow Classification Summary
  ***************************
  
  -------------------------------------------------------------------------------------
                      Adjusted    ---------- Fraction of Time in Flow Class ---------- 
                       /Actual         Up    Down  Sub   Sup   Up    Down  Norm  Inlet 
  Conduit               Length    Dry  Dry   Dry   Crit  Crit  Crit  Crit  Ltd   Ctrl  
  -------------------------------------------------------------------------------------
  C1                      1.00   0.00  0.00  0.00  0.00  1.00  0.00  0.00  0.94  0.00
  C6                      1.00   0.00  0.00  0.00  0.16  0.84  0.00  0.00  0.00  0.00
  C2                      1.00   0.00  0.00  0.00  0.15  0.85  0.00  0.00  0.95  0.00
  C9                      1.00   0.00  0.00  0.00  0.99  0.01  0.00  0.00  1.00  0.00
  C16                     1.00   0.00  0.00  0.00  0.54  0.46  0.00  0.00  0.43  0.00
  C3                      1.00   0.00  0.00  0.00  0.05  0.95  0.00  0.00  0.87  0.00
  C19                     1.00   0.00  0.00  0.00  1.00  0.00  0.00  0.00  1.00  0.00
  C11                     1.00   0.00  0.00  0.00  0.35  0.64  0.00  0.00  1.00  0.00
  C20                     1.00   0.00  0.00  0.00  0.53  0.47  0.00  0.00  0.97  0.00
  C22                     1.00   0.00  0.00  0.00  0.70  0.29  0.00  0.00  1.00  0.00
  C12                     1.00   0.00  0.00  0.00  1.00  0.00  0.00  0.00  1.00  0.00
  C17                     1.00   0.00  0.00  0.00  0.64  0.36  0.00  0.00  0.94  0.00
  C10                     1.00   0.00  0.00  0.00  0.96  0.04  0.00  0.00  0.97  0.00
  C13                     1.00   0.00  0.00  0.00  0.85  0.15  0.00  0.00  0.25  0.00
  C18                     1.00   0.00  0.00  0.00  0.93  0.07  0.00  0.00  0.97  0.00
  C23                     1.00   0.00  0.00  0.00  0.84  0.16  0.00  0.00  0.94  0.00
  C4                      1.00   0.00  0.00  0.00  0.96  0.04  0.00  0.00  0.98  0.00
  C7                      1.00   0.00  0.00  0.00  0.94  0.06  0.00  0.00  0.97  0.00
  C14                     1.00   0.00  0.00  0.00  0.00  0.99  0.00  0.00  0.31  0.00
  C5                      1.00   0.00  0.00  0.00  0.93  0.07  0.00  0.00  0.82  0.00
  C8                      1.00   0.00  0.00  0.00  0.25  0.75  0.00  0.00  0.00  0.00
  C15                     1.00   0.00  0.00  0.00  0.00  1.00  0.00  0.00  0.00  0.00
  C21                     1.00   0.00  0.00  0.00  0.01  0.99  0.00  0.00  0.00  0.00
  
  
  *************************
  Conduit Surcharge Summary
  *************************
  
  ----------------------------------------------------------------------------
                                                           Hours        Hours 
                         --------- Hours Full --------   Above Full   Capacity
  Conduit                Both Ends  Upstream  Dnstream   Normal Flow   Limited
  ----------------------------------------------------------------------------
  C6                          0.01      0.97      0.01      0.87         0.01
  C10                         0.01      0.01      6.29      0.01         0.01
  C13                         0.01      0.01      5.77      0.01         0.01
  C18                         0.01      0.01      5.89      0.01         0.01
  C23                         0.01      0.01      6.38      0.01         0.01
  C4                          0.01      0.01      6.46      0.01         0.01
  C7                          0.01      0.01      6.22      0.01         0.01
  C5                          1.01      1.01      1.15      1.11         0.98
  C8                          0.01      1.18      0.01      1.20         0.01
  C15                         0.01      1.15      0.01      1.29         0.01
  C21                         0.01      0.69      0.01      0.68         0.01
  

  Analysis begun on:  Fri Sep  3 19:14:21 2021
  Analysis ended on:  Fri Sep  3 19:14:21 2021
  Total elapsed time: < 1 sec