
  EPA STORM WATER MANAGEMENT MODEL - VERSION 5.1 (Build 5.3.0.dev0)
  --------------------------------------------------------------

  
  *********************************************************
  NOTE: The summary statistics displayed in this report are
  based on results found at every computational time step,  
  not just on results from each reporting time step.
  *********************************************************
  
  ****************
  Analysis Options
  ****************
  Flow Units ............... CMS
  Process Models:
    Rainfall/Runoff ........ YES
    RDII ................... NO
    Snowmelt ............... NO
    Groundwater ............ NO
    Flow Routing ........... YES
    Ponding Allowed ........ YES
    Water Quality .......... NO
  Infiltration Method ...... HORTON
  Flow Routing Method ...... DYNWAVE
  Surcharge Method ......... EXTRAN
  Starting Date ............ 08/28/2015 08:00:00
  Ending Date .............. 08/28/2015 15:50:00
  Antecedent Dry Days ...... 0.0
  Report Time Step ......... 00:01:00
  Wet Time Step ............ 00:01:00
  Dry Time Step ............ 00:01:00
  Routing Time Step ........ 5.00 sec
  Variable Time Step ....... YES
  Maximum Trials ........... 8
  Number of Threads ........ 1
  Head Tolerance ........... 0.001500 m
  
  
  **************************        Volume         Depth
  Runoff Quantity Continuity     hectare-m            mm
  **************************     ---------       -------
  Total Precipitation ......         2.535        14.069
  Evaporation Loss .........         0.000         0.000
  Infiltration Loss ........         0.000         0.000
  Surface Runoff ...........         2.512        13.940
  Final Storage ............         0.024         0.131
  Continuity Error (%) .....        -0.012
  
  
  **************************        Volume        Volume
  Flow Routing Continuity        hectare-m      10^6 ltr
  **************************     ---------     ---------
  Dry Weather Inflow .......         0.396         3.955
  Wet Weather Inflow .......         2.512        25.119
  Groundwater Inflow .......         0.000         0.000
  RDII Inflow ..............         0.000         0.000
  External Inflow ..........         0.000         0.000
  External Outflow .........         0.582         5.818
  Flooding Loss ............         1.269        12.695
  Evaporation Loss .........         0.000         0.000
  Exfiltration Loss ........         0.000         0.000
  Initial Stored Volume ....         0.000         0.000
  Final Stored Volume ......         0.811         8.107
  Continuity Error (%) .....         8.445
  
  
  *************************
  Highest Continuity Errors
  *************************
  Node T2 (25.91%)
  Node T3 (18.86%)
  Node T4 (17.42%)
  Node T5 (14.49%)
  Node T6 (11.29%)
  
  
  ***************************
  Time-Step Critical Elements
  ***************************
  None
  
  
  ********************************
  Highest Flow Instability Indexes
  ********************************
  Link C13 (1)
  
  
  *************************
  Routing Time Step Summary
  *************************
  Minimum Time Step           :     4.50 sec
  Average Time Step           :     5.00 sec
  Maximum Time Step           :     5.00 sec
  Percent in Steady State     :     0.00
  Average Iterations per Step :     2.25
  Percent Not Converging      :     0.60
  
  
  ***************************
  Subcatchment Runoff Summary
  ***************************
  
  ------------------------------------------------------------------------------------------------------------------------------
                            Total      Total      Total      Total     Imperv       Perv      Total       Total     Peak  Runoff
                           Precip      Runon       Evap      Infil     Runoff     Runoff     Runoff      Runoff   Runoff   Coeff
  Subcatchment                 mm         mm         mm         mm         mm         mm         mm    10^6 ltr      CMS
  ------------------------------------------------------------------------------------------------------------------------------
  SC01                      14.07       0.00       0.00       0.00      13.98       0.00      13.98        4.61     1.20   0.994
  SC02                      14.07       0.00       0.00       0.00      13.98       0.00      13.98        3.18     0.81   0.994
  SC03                      14.07       0.00       0.00       0.00      14.00       0.00      14.00        2.52     0.70   0.995
  SC04                      14.07       0.00       0.00       0.00      13.88       0.00      13.88        0.96     0.19   0.986
  SC05                      14.07       0.00       0.00       0.00      13.98       0.00      13.98        2.18     0.55   0.994
  SC06                      14.07       0.00       0.00       0.00      13.82       0.00      13.82        4.50     0.83   0.982
  SC07                      14.07       0.00       0.00       0.00      13.88       0.00      13.88        0.66     0.13   0.986
  SC08                      14.07       0.00       0.00       0.00      13.95       0.00      13.95        3.91     0.92   0.992
  SC09                      14.07       0.00       0.00       0.00      13.93       0.00      13.93        0.96     0.21   0.990
  SC010                     14.07       0.00       0.00       0.00      13.96       0.00      13.96        1.64     0.39   0.992
  
  
  ******************
  Node Depth Summary
  ******************
  
  ---------------------------------------------------------------------------------
                                 Average  Maximum  Maximum  Time of Max    Reported
                                   Depth    Depth      HGL   Occurrence   Max Depth
  Node                 Type       Meters   Meters   Meters  days hr:min      Meters
  ---------------------------------------------------------------------------------
  J1                   JUNCTION     0.09     0.25    34.25     0  01:31        0.25
  J3                   JUNCTION     0.10     0.13    18.13     0  05:02        0.13
  CSO7                 JUNCTION     0.34     1.20    35.20     0  01:22        1.20
  J5                   JUNCTION     0.08     0.17    32.17     0  01:38        0.17
  CSO9                 JUNCTION     0.38     2.00    42.00     0  01:21        2.00
  J8                   JUNCTION     0.14     0.32    36.32     0  01:40        0.32
  CSO8                 JUNCTION     0.40     2.00    34.00     0  01:19        2.00
  J10                  JUNCTION     0.12     0.33    29.33     0  01:29        0.33
  J13                  JUNCTION     0.08     0.24    29.24     0  01:31        0.24
  J15                  JUNCTION     0.18     0.41    15.41     0  01:34        0.41
  J16                  JUNCTION     0.08     0.27    30.27     0  01:30        0.27
  CSO10                JUNCTION     0.22     1.00    31.00     0  01:18        1.00
  J12                  JUNCTION     0.73     1.05    27.05     0  02:54        1.05
  J4                   JUNCTION     0.25     1.44    34.44     0  01:23        0.76
  J6                   JUNCTION     0.06     0.07    25.07     0  04:20        0.07
  J2                   JUNCTION     0.07     0.08    25.08     0  02:37        0.08
  J19                  JUNCTION     0.14     0.17     8.17     0  01:41        0.17
  J9                   JUNCTION     0.09     0.11    29.11     0  03:25        0.11
  J14                  JUNCTION     0.10     0.15    20.15     0  07:41        0.15
  J17                  JUNCTION     0.05     0.07    20.07     0  06:11        0.07
  J7                   JUNCTION     0.10     0.23    39.23     0  01:57        0.23
  J11                  JUNCTION     0.12     0.30    31.30     0  01:57        0.30
  J18                  JUNCTION     0.07     0.16    29.16     0  01:57        0.16
  Out_to_WWTP          OUTFALL      0.14     0.17     6.17     0  03:57        0.17
  T5                   STORAGE      3.86     5.00    32.00     0  01:49        5.00
  T4                   STORAGE      3.77     5.00    32.00     0  02:31        5.00
  T6                   STORAGE      3.96     5.00    36.00     0  01:45        5.00
  T3                   STORAGE      3.82     5.00    27.00     0  02:53        5.00
  T2                   STORAGE      3.97     5.00    26.00     0  02:11        5.00
  T1                   STORAGE      3.45     5.00    15.00     0  01:40        5.00
  
  
  *******************
  Node Inflow Summary
  *******************
  
  -------------------------------------------------------------------------------------------------
                                  Maximum  Maximum                  Lateral       Total        Flow
                                  Lateral    Total  Time of Max      Inflow      Inflow     Balance
                                   Inflow   Inflow   Occurrence      Volume      Volume       Error
  Node                 Type           CMS      CMS  days hr:min    10^6 ltr    10^6 ltr     Percent
  -------------------------------------------------------------------------------------------------
  J1                   JUNCTION     0.570    0.570     0  01:31        2.74        2.74      -0.008
  J3                   JUNCTION     0.000    0.188     0  05:00           0        3.09       1.200
  CSO7                 JUNCTION     0.141    0.141     0  01:37        0.95        0.95       0.057
  J5                   JUNCTION     0.196    0.268     0  01:37        1.08         1.9       0.056
  CSO9                 JUNCTION     0.218    0.218     0  01:34        1.16        1.16       0.038
  J8                   JUNCTION     0.864    0.991     0  01:40        5.44        6.47       0.057
  CSO8                 JUNCTION     0.927    0.927     0  01:33         4.2         4.2       0.013
  J10                  JUNCTION     0.716    1.202     0  01:29        2.91        6.48      -0.042
  J13                  JUNCTION     0.823    0.823     0  01:31        3.65        3.65      -0.207
  J15                  JUNCTION     0.000    1.475     0  01:31           0        10.1       0.748
  J16                  JUNCTION     1.214    1.214     0  01:30        5.17        5.17      -0.034
  CSO10                JUNCTION     0.394    0.394     0  01:32        1.78        1.78       0.008
  J12                  JUNCTION     0.000    1.212     0  01:30           0        8.12      10.729
  J4                   JUNCTION     0.000    0.081     0  01:22           0       0.813       0.396
  J6                   JUNCTION     0.000    0.028     0  02:31           0       0.585       0.422
  J2                   JUNCTION     0.000    0.039     0  01:49           0       0.911       0.553
  J19                  JUNCTION     0.000    0.271     0  01:40           0        5.83       0.175
  J9                   JUNCTION     0.000    0.075     0  01:45           0        1.66       1.114
  J14                  JUNCTION     0.000    0.124     0  03:20           0        1.61       0.465
  J17                  JUNCTION     0.000    0.033     0  06:10           0       0.373       1.197
  J7                   JUNCTION     0.000    0.127     0  01:57           0        1.03       0.307
  J11                  JUNCTION     0.000    0.487     0  01:57           0        3.58       0.196
  J18                  JUNCTION     0.000    0.202     0  01:57           0        1.51       0.046
  Out_to_WWTP          OUTFALL      0.000    0.271     0  01:42           0        5.82       0.000
  T5                   STORAGE      0.000    0.570     0  01:31           0        2.74      16.943
  T4                   STORAGE      0.000    0.268     0  01:38           0        1.89      21.091
  T6                   STORAGE      0.000    0.991     0  01:40           0        6.46      12.721
  T3                   STORAGE      0.000    1.199     0  01:32           0        7.34      23.243
  T2                   STORAGE      0.000    0.822     0  01:31           0        3.66      34.977
  T1                   STORAGE      0.000    1.450     0  01:34           0          10       4.951
  
  
  **********************
  Node Surcharge Summary
  **********************
  
  Surcharging occurs when water rises above the top of the highest conduit.
  ---------------------------------------------------------------------
                                               Max. Height   Min. Depth
                                   Hours       Above Crown    Below Rim
  Node                 Type      Surcharged         Meters       Meters
  ---------------------------------------------------------------------
  CSO7                 JUNCTION        1.88          0.945        0.000
  CSO9                 JUNCTION        1.86          1.682        0.000
  CSO8                 JUNCTION        1.85          1.547        0.000
  CSO10                JUNCTION        0.95          0.560        0.000
  J4                   JUNCTION        1.85          1.137        0.563
  
  
  *********************
  Node Flooding Summary
  *********************
  
  Flooding refers to all water that overflows a node, whether it ponds or not.
  --------------------------------------------------------------------------
                                                             Total   Maximum
                                 Maximum   Time of Max       Flood    Ponded
                        Hours       Rate    Occurrence      Volume     Depth
  Node                 Flooded       CMS   days hr:min    10^6 ltr    Meters
  --------------------------------------------------------------------------
  CSO7                    1.58     0.069      0  01:37       0.136     0.000
  CSO9                    0.61     0.091      0  01:34       0.127     0.000
  CSO8                    0.63     0.441      0  01:33       0.619     0.000
  CSO10                   0.65     0.191      0  01:32       0.269     0.000
  T5                      2.12     0.366      0  01:49       1.032     0.000
  T4                      2.33     0.157      0  03:01       0.527     0.000
  T6                      3.40     0.903      0  01:45       3.556     0.000
  T3                      3.70     1.066      0  02:58       1.751     0.000
  T2                      3.84     0.392      0  03:01       1.340     0.000
  T1                      2.15     1.114      0  01:40       3.338     0.000
  
  
  **********************
  Storage Volume Summary
  **********************
  
  --------------------------------------------------------------------------------------------------
                         Average     Avg  Evap Exfil       Maximum     Max    Time of Max    Maximum
                          Volume    Pcnt  Pcnt  Pcnt        Volume    Pcnt     Occurrence    Outflow
  Storage Unit           1000 m3    Full  Loss  Loss       1000 m3    Full    days hr:min        CMS
  --------------------------------------------------------------------------------------------------
  T5                       0.386      77     0     0         0.500     100       0  01:49      0.039
  T4                       0.377      75     0     0         0.500     100       0  02:31      0.028
  T6                       0.475      79     0     0         0.600     100       0  01:45      0.075
  T3                       1.985      76     0     0         2.600     100       0  02:53      0.124
  T2                       0.793      79     0     0         1.000     100       0  02:11      0.033
  T1                       0.482      69     0     0         0.700     100       0  01:40      0.271
  
  
  ***********************
  Outfall Loading Summary
  ***********************
  
  -----------------------------------------------------------
                         Flow       Avg       Max       Total
                         Freq      Flow      Flow      Volume
  Outfall Node           Pcnt       CMS       CMS    10^6 ltr
  -----------------------------------------------------------
  Out_to_WWTP           99.01     0.208     0.271       5.818
  -----------------------------------------------------------
  System                99.01     0.208     0.271       5.818
  
  
  ********************
  Link Flow Summary
  ********************
  
  -----------------------------------------------------------------------------
                                 Maximum  Time of Max   Maximum    Max/    Max/
                                  |Flow|   Occurrence   |Veloc|    Full    Full
  Link                 Type          CMS  days hr:min     m/sec    Flow   Depth
  -----------------------------------------------------------------------------
  C1                   CONDUIT     0.039     0  02:37      1.13    0.01    0.11
  C6                   CONDUIT     0.072     0  01:38      1.29    1.15    0.79
  C2                   CONDUIT     0.028     0  04:20      1.01    0.03    0.17
  C9                   CONDUIT     0.127     0  01:57      1.29    0.43    0.55
  C16                  CONDUIT     0.486     0  01:48      1.80    0.05    0.16
  C3                   CONDUIT     0.124     0  07:42      1.84    0.05    0.14
  C19                  CONDUIT     0.030     0  06:11      0.66    0.01    0.22
  C11                  CONDUIT     0.180     0  05:02      1.78    0.01    0.12
  C20                  CONDUIT     1.213     0  01:30      3.60    0.04    0.17
  C22                  CONDUIT     0.202     0  01:56      1.63    0.09    0.36
  C12                  CONDUIT     0.075     0  03:25      0.56    0.01    0.29
  C17                  CONDUIT     1.197     0  01:30      3.36    0.06    0.33
  C10                  CONDUIT     0.991     0  01:40      1.66    0.10    0.61
  C13                  CONDUIT     1.199     0  01:32      2.03    0.07    0.76
  C18                  CONDUIT     0.822     0  01:31      1.72    0.03    0.56
  C23                  CONDUIT     1.450     0  01:34      1.65    0.16    0.64
  C4                   CONDUIT     0.570     0  01:31      1.98    0.14    0.63
  C7                   CONDUIT     0.268     0  01:38      1.43    0.07    0.59
  C14                  CONDUIT     0.271     0  01:42      2.08    0.02    0.09
  C5                   CONDUIT     0.081     0  01:22      1.59    1.39    1.00
  C8                   CONDUIT     0.127     0  01:57      1.79    1.60    0.86
  C15                  CONDUIT     0.487     0  01:57      3.47    1.55    0.83
  C21                  CONDUIT     0.202     0  01:57      1.85    1.16    0.69
  V4                   ORIFICE     0.028     0  02:31                      0.35
  V5                   ORIFICE     0.039     0  01:49                      1.00
  V1                   ORIFICE     0.271     0  01:40                      1.00
  V6                   ORIFICE     0.075     0  01:45                      0.43
  V3                   ORIFICE     0.124     0  03:20                      0.65
  V2                   ORIFICE     0.033     0  06:10                      0.24
  
  
  ***************************
  Flow Classification Summary
  ***************************
  
  -------------------------------------------------------------------------------------
                      Adjusted    ---------- Fraction of Time in Flow Class ---------- 
                       /Actual         Up    Down  Sub   Sup   Up    Down  Norm  Inlet 
  Conduit               Length    Dry  Dry   Dry   Crit  Crit  Crit  Crit  Ltd   Ctrl  
  -------------------------------------------------------------------------------------
  C1                      1.00   0.00  0.00  0.00  0.00  1.00  0.00  0.00  0.94  0.00
  C6                      1.00   0.00  0.00  0.00  0.26  0.74  0.00  0.00  0.00  0.00
  C2                      1.00   0.00  0.00  0.00  0.15  0.85  0.00  0.00  0.95  0.00
  C9                      1.00   0.00  0.00  0.00  1.00  0.00  0.00  0.00  1.00  0.00
  C16                     1.00   0.00  0.00  0.00  0.54  0.46  0.00  0.00  0.48  0.00
  C3                      1.00   0.00  0.00  0.00  0.05  0.95  0.00  0.00  0.80  0.00
  C19                     1.00   0.00  0.00  0.00  1.00  0.00  0.00  0.00  1.00  0.00
  C11                     1.00   0.00  0.00  0.00  0.35  0.64  0.00  0.00  1.00  0.00
  C20                     1.00   0.00  0.00  0.00  0.54  0.46  0.00  0.00  0.97  0.00
  C22                     1.00   0.00  0.00  0.00  0.75  0.25  0.00  0.00  1.00  0.00
  C12                     1.00   0.00  0.00  0.00  1.00  0.00  0.00  0.00  1.00  0.00
  C17                     1.00   0.00  0.00  0.00  0.69  0.31  0.00  0.00  0.93  0.00
  C10                     1.00   0.00  0.00  0.00  0.96  0.04  0.00  0.00  0.97  0.00
  C13                     1.00   0.00  0.00  0.00  0.85  0.15  0.00  0.00  0.20  0.00
  C18                     1.00   0.00  0.00  0.00  0.94  0.06  0.00  0.00  0.97  0.00
  C23                     1.00   0.00  0.00  0.00  0.84  0.16  0.00  0.00  0.94  0.00
  C4                      1.00   0.00  0.00  0.00  0.96  0.04  0.00  0.00  0.98  0.00
  C7                      1.00   0.00  0.00  0.00  0.94  0.06  0.00  0.00  0.97  0.00
  C14                     1.00   0.00  0.00  0.00  0.00  0.99  0.00  0.00  0.31  0.00
  C5                      1.00   0.00  0.00  0.00  0.93  0.07  0.00  0.00  0.71  0.00
  C8                      1.00   0.00  0.00  0.00  0.25  0.75  0.00  0.00  0.00  0.00
  C15                     1.00   0.00  0.00  0.00  0.00  1.00  0.00  0.00  0.00  0.00
  C21                     1.00   0.00  0.00  0.00  0.01  0.99  0.00  0.00  0.00  0.00
  
  
  *************************
  Conduit Surcharge Summary
  *************************
  
  ----------------------------------------------------------------------------
                                                           Hours        Hours 
                         --------- Hours Full --------   Above Full   Capacity
  Conduit                Both Ends  Upstream  Dnstream   Normal Flow   Limited
  ----------------------------------------------------------------------------
  C6                          0.01      1.85      0.01      1.75         0.01
  C10                         0.01      0.01      6.38      0.01         0.01
  C13                         0.01      0.01      6.13      0.01         0.01
  C18                         0.01      0.01      6.28      0.01         0.01
  C23                         0.01      0.01      6.41      0.01         0.01
  C4                          0.01      0.01      6.47      0.01         0.01
  C7                          0.01      0.01      6.33      0.01         0.01
  C5                          1.84      1.88      1.94      1.88         1.81
  C8                          0.01      1.86      0.01      1.87         0.01
  C15                         0.01      1.85      0.01      1.88         0.01
  C21                         0.01      0.95      0.01      0.93         0.01
  

  Analysis begun on:  Fri Sep  3 19:18:27 2021
  Analysis ended on:  Fri Sep  3 19:18:27 2021
  Total elapsed time: < 1 sec