
  EPA STORM WATER MANAGEMENT MODEL - VERSION 5.1 (Build 5.3.0.dev0)
  --------------------------------------------------------------

  
  *********************************************************
  NOTE: The summary statistics displayed in this report are
  based on results found at every computational time step,  
  not just on results from each reporting time step.
  *********************************************************
  
  ****************
  Analysis Options
  ****************
  Flow Units ............... CMS
  Process Models:
    Rainfall/Runoff ........ YES
    RDII ................... NO
    Snowmelt ............... NO
    Groundwater ............ NO
    Flow Routing ........... YES
    Ponding Allowed ........ YES
    Water Quality .......... NO
  Infiltration Method ...... HORTON
  Flow Routing Method ...... DYNWAVE
  Surcharge Method ......... EXTRAN
  Starting Date ............ 08/28/2015 08:00:00
  Ending Date .............. 08/28/2015 15:50:00
  Antecedent Dry Days ...... 0.0
  Report Time Step ......... 00:01:00
  Wet Time Step ............ 00:01:00
  Dry Time Step ............ 00:01:00
  Routing Time Step ........ 5.00 sec
  Variable Time Step ....... YES
  Maximum Trials ........... 8
  Number of Threads ........ 1
  Head Tolerance ........... 0.001500 m
  
  
  **************************        Volume         Depth
  Runoff Quantity Continuity     hectare-m            mm
  **************************     ---------       -------
  Total Precipitation ......         0.691         3.835
  Evaporation Loss .........         0.000         0.000
  Infiltration Loss ........         0.000         0.000
  Surface Runoff ...........         0.668         3.710
  Final Storage ............         0.023         0.126
  Continuity Error (%) .....        -0.008
  
  
  **************************        Volume        Volume
  Flow Routing Continuity        hectare-m      10^6 ltr
  **************************     ---------     ---------
  Dry Weather Inflow .......         0.396         3.955
  Wet Weather Inflow .......         0.668         6.685
  Groundwater Inflow .......         0.000         0.000
  RDII Inflow ..............         0.000         0.000
  External Inflow ..........         0.000         0.000
  External Outflow .........         0.403         4.033
  Flooding Loss ............         0.000         0.000
  Evaporation Loss .........         0.000         0.000
  Exfiltration Loss ........         0.000         0.000
  Initial Stored Volume ....         0.000         0.000
  Final Stored Volume ......         0.542         5.424
  Continuity Error (%) .....        11.121
  
  
  *************************
  Highest Continuity Errors
  *************************
  Node T2 (40.62%)
  Node T6 (28.48%)
  Node T3 (25.58%)
  Node T5 (22.27%)
  Node T4 (22.20%)
  
  
  ***************************
  Time-Step Critical Elements
  ***************************
  None
  
  
  ********************************
  Highest Flow Instability Indexes
  ********************************
  All links are stable.
  
  
  *************************
  Routing Time Step Summary
  *************************
  Minimum Time Step           :     4.50 sec
  Average Time Step           :     5.00 sec
  Maximum Time Step           :     5.00 sec
  Percent in Steady State     :     0.00
  Average Iterations per Step :     2.00
  Percent Not Converging      :     0.00
  
  
  ***************************
  Subcatchment Runoff Summary
  ***************************
  
  ------------------------------------------------------------------------------------------------------------------------------
                            Total      Total      Total      Total     Imperv       Perv      Total       Total     Peak  Runoff
                           Precip      Runon       Evap      Infil     Runoff     Runoff     Runoff      Runoff   Runoff   Coeff
  Subcatchment                 mm         mm         mm         mm         mm         mm         mm    10^6 ltr      CMS
  ------------------------------------------------------------------------------------------------------------------------------
  SC01                       3.84       0.00       0.00       0.00       3.75       0.00       3.75        1.24     0.27   0.978
  SC02                       3.84       0.00       0.00       0.00       3.75       0.00       3.75        0.85     0.18   0.977
  SC03                       3.84       0.00       0.00       0.00       3.77       0.00       3.77        0.68     0.15   0.982
  SC04                       3.84       0.00       0.00       0.00       3.65       0.00       3.65        0.25     0.05   0.952
  SC05                       3.84       0.00       0.00       0.00       3.74       0.00       3.74        0.58     0.13   0.976
  SC06                       3.84       0.00       0.00       0.00       3.60       0.00       3.60        1.17     0.21   0.940
  SC07                       3.84       0.00       0.00       0.00       3.65       0.00       3.65        0.17     0.03   0.952
  SC08                       3.84       0.00       0.00       0.00       3.72       0.00       3.72        1.04     0.22   0.970
  SC09                       3.84       0.00       0.00       0.00       3.70       0.00       3.70        0.26     0.05   0.964
  SC010                      3.84       0.00       0.00       0.00       3.72       0.00       3.72        0.44     0.09   0.971
  
  
  ******************
  Node Depth Summary
  ******************
  
  ---------------------------------------------------------------------------------
                                 Average  Maximum  Maximum  Time of Max    Reported
                                   Depth    Depth      HGL   Occurrence   Max Depth
  Node                 Type       Meters   Meters   Meters  days hr:min      Meters
  ---------------------------------------------------------------------------------
  J1                   JUNCTION     0.07     0.13    34.13     0  03:01        0.13
  J3                   JUNCTION     0.08     0.12    18.12     0  07:41        0.12
  CSO7                 JUNCTION     0.09     0.17    34.17     0  03:01        0.17
  J5                   JUNCTION     0.06     0.10    32.10     0  03:02        0.10
  CSO9                 JUNCTION     0.09     0.21    40.21     0  03:01        0.21
  J8                   JUNCTION     0.10     0.18    36.18     0  03:02        0.18
  CSO8                 JUNCTION     0.11     0.30    32.30     0  03:01        0.30
  J10                  JUNCTION     0.08     0.19    29.19     0  03:01        0.19
  J13                  JUNCTION     0.06     0.12    29.12     0  03:01        0.12
  J15                  JUNCTION     0.13     0.23    15.23     0  03:02        0.23
  J16                  JUNCTION     0.06     0.13    30.13     0  03:01        0.13
  CSO10                JUNCTION     0.10     0.26    30.26     0  03:01        0.26
  J12                  JUNCTION     0.12     0.22    26.22     0  03:04        0.22
  J4                   JUNCTION     0.11     0.20    33.20     0  03:03        0.20
  J6                   JUNCTION     0.05     0.06    25.06     0  05:54        0.06
  J2                   JUNCTION     0.06     0.07    25.07     0  04:40        0.07
  J19                  JUNCTION     0.12     0.16     8.16     0  03:31        0.16
  J9                   JUNCTION     0.08     0.11    29.11     0  05:15        0.11
  J14                  JUNCTION     0.08     0.14    20.14     0  07:31        0.14
  J17                  JUNCTION     0.04     0.06    20.06     0  04:41        0.06
  J7                   JUNCTION     0.07     0.15    39.15     0  03:02        0.15
  J11                  JUNCTION     0.08     0.20    31.20     0  03:02        0.20
  J18                  JUNCTION     0.05     0.11    29.11     0  03:02        0.11
  Out_to_WWTP          OUTFALL      0.12     0.16     6.16     0  03:31        0.16
  T5                   STORAGE      1.97     2.94    29.94     0  04:38        2.94
  T4                   STORAGE      1.69     2.65    29.65     0  05:46        2.65
  T6                   STORAGE      3.05     4.82    35.82     0  05:00        4.82
  T3                   STORAGE      1.88     3.28    25.28     0  07:24        3.28
  T2                   STORAGE      1.73     2.70    23.70     0  07:50        2.70
  T1                   STORAGE      1.75     3.40    13.40     0  03:31        3.40
  
  
  *******************
  Node Inflow Summary
  *******************
  
  -------------------------------------------------------------------------------------------------
                                  Maximum  Maximum                  Lateral       Total        Flow
                                  Lateral    Total  Time of Max      Inflow      Inflow     Balance
                                   Inflow   Inflow   Occurrence      Volume      Volume       Error
  Node                 Type           CMS      CMS  days hr:min    10^6 ltr    10^6 ltr     Percent
  -------------------------------------------------------------------------------------------------
  J1                   JUNCTION     0.149    0.149     0  03:01        1.15        1.15       0.060
  J3                   JUNCTION     0.000    0.148     0  07:32           0        2.06       1.580
  CSO7                 JUNCTION     0.045    0.045     0  03:01       0.464       0.464       0.097
  J5                   JUNCTION     0.053    0.095     0  03:01       0.379       0.839       0.198
  CSO9                 JUNCTION     0.060    0.060     0  03:01       0.451       0.451       0.097
  J8                   JUNCTION     0.252    0.308     0  03:01        2.11        2.56       0.218
  CSO8                 JUNCTION     0.228    0.228     0  03:01        1.33        1.33       0.040
  J10                  JUNCTION     0.170    0.388     0  03:01        1.06        2.39       0.232
  J13                  JUNCTION     0.204    0.204     0  03:01        1.32        1.32      -0.192
  J15                  JUNCTION     0.000    0.466     0  03:01           0        4.64       1.515
  J16                  JUNCTION     0.293    0.293     0  03:01        1.79        1.79       0.043
  CSO10                JUNCTION     0.097    0.097     0  03:01       0.577       0.577       0.074
  J12                  JUNCTION     0.000    0.430     0  03:02           0        3.69       0.735
  J4                   JUNCTION     0.000    0.045     0  03:01           0       0.463       0.812
  J6                   JUNCTION     0.000    0.020     0  05:46           0       0.405       0.780
  J2                   JUNCTION     0.000    0.030     0  04:38           0       0.642       0.662
  J19                  JUNCTION     0.000    0.223     0  03:31           0        4.04       0.207
  J9                   JUNCTION     0.000    0.074     0  05:00           0        1.32       1.259
  J14                  JUNCTION     0.000    0.100     0  07:30           0        1.03       0.623
  J17                  JUNCTION     0.000    0.023     0  04:40           0       0.245       1.298
  J7                   JUNCTION     0.000    0.059     0  03:01           0       0.451       0.715
  J11                  JUNCTION     0.000    0.227     0  03:01           0        1.33       0.439
  J18                  JUNCTION     0.000    0.097     0  03:01           0       0.576       0.207
  Out_to_WWTP          OUTFALL      0.000    0.223     0  03:31           0        4.03       0.000
  T5                   STORAGE      0.000    0.147     0  03:01           0        1.15      28.646
  T4                   STORAGE      0.000    0.094     0  03:02           0       0.837      28.542
  T6                   STORAGE      0.000    0.302     0  03:02           0        2.56      39.818
  T3                   STORAGE      0.000    0.417     0  03:04           0        3.66      34.369
  T2                   STORAGE      0.000    0.201     0  03:01           0        1.32      68.411
  T1                   STORAGE      0.000    0.448     0  03:03           0        4.57       7.034
  
  
  **********************
  Node Surcharge Summary
  **********************
  
  No nodes were surcharged.
  
  
  *********************
  Node Flooding Summary
  *********************
  
  No nodes were flooded.
  
  
  **********************
  Storage Volume Summary
  **********************
  
  --------------------------------------------------------------------------------------------------
                         Average     Avg  Evap Exfil       Maximum     Max    Time of Max    Maximum
                          Volume    Pcnt  Pcnt  Pcnt        Volume    Pcnt     Occurrence    Outflow
  Storage Unit           1000 m3    Full  Loss  Loss       1000 m3    Full    days hr:min        CMS
  --------------------------------------------------------------------------------------------------
  T5                       0.197      39     0     0         0.294      59       0  04:38      0.030
  T4                       0.169      34     0     0         0.265      53       0  05:46      0.020
  T6                       0.367      61     0     0         0.579      96       0  05:00      0.074
  T3                       0.976      38     0     0         1.707      66       0  07:24      0.100
  T2                       0.346      35     0     0         0.540      54       0  07:50      0.023
  T1                       0.245      35     0     0         0.476      68       0  03:31      0.223
  
  
  ***********************
  Outfall Loading Summary
  ***********************
  
  -----------------------------------------------------------
                         Flow       Avg       Max       Total
                         Freq      Flow      Flow      Volume
  Outfall Node           Pcnt       CMS       CMS    10^6 ltr
  -----------------------------------------------------------
  Out_to_WWTP           99.01     0.144     0.223       4.033
  -----------------------------------------------------------
  System                99.01     0.144     0.223       4.033
  
  
  ********************
  Link Flow Summary
  ********************
  
  -----------------------------------------------------------------------------
                                 Maximum  Time of Max   Maximum    Max/    Max/
                                  |Flow|   Occurrence   |Veloc|    Full    Full
  Link                 Type          CMS  days hr:min     m/sec    Flow   Depth
  -----------------------------------------------------------------------------
  C1                   CONDUIT     0.030     0  04:40      1.01    0.01    0.09
  C6                   CONDUIT     0.043     0  03:03      1.21    0.68    0.50
  C2                   CONDUIT     0.020     0  05:55      0.89    0.02    0.15
  C9                   CONDUIT     0.057     0  03:02      1.01    0.19    0.33
  C16                  CONDUIT     0.221     0  03:02      1.39    0.02    0.10
  C3                   CONDUIT     0.100     0  07:32      1.71    0.04    0.13
  C19                  CONDUIT     0.021     0  04:41      0.53    0.01    0.13
  C11                  CONDUIT     0.147     0  07:42      1.67    0.01    0.08
  C20                  CONDUIT     0.290     0  03:01      2.06    0.01    0.09
  C22                  CONDUIT     0.095     0  03:02      1.22    0.04    0.21
  C12                  CONDUIT     0.074     0  05:15      1.11    0.01    0.08
  C17                  CONDUIT     0.380     0  03:01      2.30    0.02    0.10
  C10                  CONDUIT     0.302     0  03:02      1.66    0.03    0.56
  C13                  CONDUIT     0.417     0  03:04      1.45    0.02    0.54
  C18                  CONDUIT     0.201     0  03:01      1.72    0.01    0.52
  C23                  CONDUIT     0.448     0  03:03      1.24    0.05    0.58
  C4                   CONDUIT     0.147     0  03:01      1.98    0.04    0.56
  C7                   CONDUIT     0.094     0  03:02      1.43    0.02    0.55
  C14                  CONDUIT     0.223     0  03:31      1.96    0.01    0.08
  C5                   CONDUIT     0.045     0  03:01      1.22    0.76    0.71
  C8                   CONDUIT     0.059     0  03:01      1.26    0.74    0.57
  C15                  CONDUIT     0.227     0  03:01      2.49    0.72    0.55
  C21                  CONDUIT     0.097     0  03:01      1.60    0.55    0.42
  V4                   ORIFICE     0.020     0  05:46                      0.35
  V5                   ORIFICE     0.030     0  04:38                      1.00
  V1                   ORIFICE     0.223     0  03:31                      1.00
  V6                   ORIFICE     0.074     0  05:00                      0.43
  V3                   ORIFICE     0.100     0  07:30                      0.65
  V2                   ORIFICE     0.023     0  04:40                      0.24
  
  
  ***************************
  Flow Classification Summary
  ***************************
  
  -------------------------------------------------------------------------------------
                      Adjusted    ---------- Fraction of Time in Flow Class ---------- 
                       /Actual         Up    Down  Sub   Sup   Up    Down  Norm  Inlet 
  Conduit               Length    Dry  Dry   Dry   Crit  Crit  Crit  Crit  Ltd   Ctrl  
  -------------------------------------------------------------------------------------
  C1                      1.00   0.00  0.00  0.00  0.04  0.96  0.00  0.00  0.94  0.00
  C6                      1.00   0.00  0.00  0.00  0.01  0.99  0.00  0.00  0.00  0.00
  C2                      1.00   0.00  0.00  0.00  0.13  0.87  0.00  0.00  0.95  0.00
  C9                      1.00   0.00  0.00  0.00  1.00  0.00  0.00  0.00  1.00  0.00
  C16                     1.00   0.00  0.00  0.00  0.61  0.39  0.00  0.00  0.51  0.00
  C3                      1.00   0.00  0.00  0.00  0.05  0.95  0.00  0.00  0.87  0.00
  C19                     1.00   0.00  0.00  0.00  1.00  0.00  0.00  0.00  1.00  0.00
  C11                     1.00   0.00  0.00  0.00  0.33  0.67  0.00  0.00  1.00  0.00
  C20                     1.00   0.00  0.00  0.00  0.51  0.49  0.00  0.00  0.98  0.00
  C22                     1.00   0.00  0.00  0.00  0.82  0.18  0.00  0.00  1.00  0.00
  C12                     1.00   0.00  0.00  0.00  0.55  0.44  0.00  0.00  0.88  0.00
  C17                     1.00   0.00  0.00  0.00  0.34  0.66  0.00  0.00  0.97  0.00
  C10                     1.00   0.00  0.00  0.00  0.96  0.04  0.00  0.00  0.97  0.00
  C13                     1.00   0.00  0.00  0.00  0.88  0.12  0.00  0.00  0.91  0.00
  C18                     1.00   0.00  0.00  0.00  0.94  0.06  0.00  0.00  0.97  0.00
  C23                     1.00   0.00  0.00  0.00  0.87  0.13  0.00  0.00  0.94  0.00
  C4                      1.00   0.00  0.00  0.00  0.96  0.04  0.00  0.00  0.98  0.00
  C7                      1.00   0.00  0.00  0.00  0.94  0.06  0.00  0.00  0.97  0.00
  C14                     1.00   0.00  0.00  0.00  0.00  0.99  0.00  0.00  0.52  0.00
  C5                      1.00   0.00  0.00  0.00  0.88  0.12  0.00  0.00  0.98  0.00
  C8                      1.00   0.00  0.00  0.00  0.00  1.00  0.00  0.00  0.00  0.00
  C15                     1.00   0.00  0.00  0.00  0.00  1.00  0.00  0.00  0.00  0.00
  C21                     1.00   0.00  0.00  0.00  0.00  1.00  0.00  0.00  0.00  0.00
  
  
  *************************
  Conduit Surcharge Summary
  *************************
  
  ----------------------------------------------------------------------------
                                                           Hours        Hours 
                         --------- Hours Full --------   Above Full   Capacity
  Conduit                Both Ends  Upstream  Dnstream   Normal Flow   Limited
  ----------------------------------------------------------------------------
  C10                         0.01      0.01      5.36      0.01         0.01
  C13                         0.01      0.01      4.53      0.01         0.01
  C18                         0.01      0.01      4.62      0.01         0.01
  C23                         0.01      0.01      5.33      0.01         0.01
  C4                          0.01      0.01      5.60      0.01         0.01
  C7                          0.01      0.01      5.23      0.01         0.01
  

  Analysis begun on:  Fri Sep  3 18:51:37 2021
  Analysis ended on:  Fri Sep  3 18:51:37 2021
  Total elapsed time: < 1 sec