
  EPA STORM WATER MANAGEMENT MODEL - VERSION 5.1 (Build 5.3.0.dev0)
  --------------------------------------------------------------

  
  *********************************************************
  NOTE: The summary statistics displayed in this report are
  based on results found at every computational time step,  
  not just on results from each reporting time step.
  *********************************************************
  
  ****************
  Analysis Options
  ****************
  Flow Units ............... CMS
  Process Models:
    Rainfall/Runoff ........ YES
    RDII ................... NO
    Snowmelt ............... NO
    Groundwater ............ NO
    Flow Routing ........... YES
    Ponding Allowed ........ YES
    Water Quality .......... NO
  Infiltration Method ...... HORTON
  Flow Routing Method ...... DYNWAVE
  Surcharge Method ......... EXTRAN
  Starting Date ............ 08/28/2015 08:00:00
  Ending Date .............. 08/28/2015 15:50:00
  Antecedent Dry Days ...... 0.0
  Report Time Step ......... 00:01:00
  Wet Time Step ............ 00:01:00
  Dry Time Step ............ 00:01:00
  Routing Time Step ........ 5.00 sec
  Variable Time Step ....... YES
  Maximum Trials ........... 8
  Number of Threads ........ 1
  Head Tolerance ........... 0.001500 m
  
  
  **************************        Volume         Depth
  Runoff Quantity Continuity     hectare-m            mm
  **************************     ---------       -------
  Total Precipitation ......         2.611        14.487
  Evaporation Loss .........         0.000         0.000
  Infiltration Loss ........         0.000         0.000
  Surface Runoff ...........         2.587        14.354
  Final Storage ............         0.024         0.134
  Continuity Error (%) .....        -0.007
  
  
  **************************        Volume        Volume
  Flow Routing Continuity        hectare-m      10^6 ltr
  **************************     ---------     ---------
  Dry Weather Inflow .......         0.396         3.955
  Wet Weather Inflow .......         2.587        25.866
  Groundwater Inflow .......         0.000         0.000
  RDII Inflow ..............         0.000         0.000
  External Inflow ..........         0.000         0.000
  External Outflow .........         0.555         5.550
  Flooding Loss ............         1.356        13.563
  Evaporation Loss .........         0.000         0.000
  Exfiltration Loss ........         0.000         0.000
  Initial Stored Volume ....         0.000         0.000
  Final Stored Volume ......         0.817         8.170
  Continuity Error (%) .....         8.515
  
  
  *************************
  Highest Continuity Errors
  *************************
  Node T2 (25.16%)
  Node T3 (19.64%)
  Node T4 (18.24%)
  Node T5 (14.26%)
  Node T6 (11.57%)
  
  
  ***************************
  Time-Step Critical Elements
  ***************************
  None
  
  
  ********************************
  Highest Flow Instability Indexes
  ********************************
  All links are stable.
  
  
  *************************
  Routing Time Step Summary
  *************************
  Minimum Time Step           :     4.50 sec
  Average Time Step           :     5.00 sec
  Maximum Time Step           :     5.00 sec
  Percent in Steady State     :     0.00
  Average Iterations per Step :     2.20
  Percent Not Converging      :     0.59
  
  
  ***************************
  Subcatchment Runoff Summary
  ***************************
  
  ------------------------------------------------------------------------------------------------------------------------------
                            Total      Total      Total      Total     Imperv       Perv      Total       Total     Peak  Runoff
                           Precip      Runon       Evap      Infil     Runoff     Runoff     Runoff      Runoff   Runoff   Coeff
  Subcatchment                 mm         mm         mm         mm         mm         mm         mm    10^6 ltr      CMS
  ------------------------------------------------------------------------------------------------------------------------------
  SC01                      14.49       0.00       0.00       0.00      14.40       0.00      14.40        4.75     1.29   0.994
  SC02                      14.49       0.00       0.00       0.00      14.40       0.00      14.40        3.27     0.88   0.994
  SC03                      14.49       0.00       0.00       0.00      14.42       0.00      14.42        2.60     0.74   0.995
  SC04                      14.49       0.00       0.00       0.00      14.29       0.00      14.29        0.99     0.24   0.986
  SC05                      14.49       0.00       0.00       0.00      14.39       0.00      14.39        2.25     0.60   0.994
  SC06                      14.49       0.00       0.00       0.00      14.23       0.00      14.23        4.63     1.06   0.982
  SC07                      14.49       0.00       0.00       0.00      14.29       0.00      14.29        0.68     0.16   0.986
  SC08                      14.49       0.00       0.00       0.00      14.37       0.00      14.37        4.02     1.04   0.992
  SC09                      14.49       0.00       0.00       0.00      14.34       0.00      14.34        0.99     0.25   0.990
  SC010                     14.49       0.00       0.00       0.00      14.37       0.00      14.37        1.69     0.44   0.992
  
  
  ******************
  Node Depth Summary
  ******************
  
  ---------------------------------------------------------------------------------
                                 Average  Maximum  Maximum  Time of Max    Reported
                                   Depth    Depth      HGL   Occurrence   Max Depth
  Node                 Type       Meters   Meters   Meters  days hr:min      Meters
  ---------------------------------------------------------------------------------
  J1                   JUNCTION     0.09     0.26    34.26     0  02:42        0.26
  J3                   JUNCTION     0.10     0.14    18.14     0  06:30        0.14
  CSO7                 JUNCTION     0.27     1.20    35.20     0  02:04        1.20
  J5                   JUNCTION     0.08     0.19    32.19     0  02:45        0.19
  CSO9                 JUNCTION     0.37     2.00    42.00     0  02:16        2.00
  J8                   JUNCTION     0.13     0.36    36.36     0  02:46        0.36
  CSO8                 JUNCTION     0.39     2.00    34.00     0  02:13        2.00
  J10                  JUNCTION     0.12     0.33    29.33     0  02:42        0.33
  J13                  JUNCTION     0.08     0.25    29.25     0  02:42        0.25
  J15                  JUNCTION     0.18     0.43    15.43     0  02:45        0.43
  J16                  JUNCTION     0.08     0.28    30.28     0  02:42        0.28
  CSO10                JUNCTION     0.22     1.00    31.00     0  02:12        1.00
  J12                  JUNCTION     0.70     1.04    27.04     0  03:01        1.04
  J4                   JUNCTION     0.21     1.22    34.22     0  02:04        0.88
  J6                   JUNCTION     0.06     0.07    25.07     0  03:36        0.07
  J2                   JUNCTION     0.07     0.08    25.08     0  03:21        0.08
  J19                  JUNCTION     0.14     0.17     8.17     0  02:20        0.17
  J9                   JUNCTION     0.09     0.11    29.11     0  04:40        0.11
  J14                  JUNCTION     0.09     0.15    20.15     0  07:11        0.15
  J17                  JUNCTION     0.04     0.07    20.07     0  05:01        0.07
  J7                   JUNCTION     0.10     0.23    39.23     0  03:07        0.23
  J11                  JUNCTION     0.12     0.30    31.30     0  03:06        0.30
  J18                  JUNCTION     0.07     0.16    29.16     0  02:49        0.16
  Out_to_WWTP          OUTFALL      0.14     0.17     6.17     0  03:54        0.17
  T5                   STORAGE      3.55     5.00    32.00     0  02:32        5.00
  T4                   STORAGE      3.51     5.00    32.00     0  02:51        5.00
  T6                   STORAGE      3.73     5.00    36.00     0  02:24        5.00
  T3                   STORAGE      3.56     5.00    27.00     0  03:02        5.00
  T2                   STORAGE      3.63     5.00    26.00     0  02:42        5.00
  T1                   STORAGE      3.21     5.00    15.00     0  02:19        5.00
  
  
  *******************
  Node Inflow Summary
  *******************
  
  -------------------------------------------------------------------------------------------------
                                  Maximum  Maximum                  Lateral       Total        Flow
                                  Lateral    Total  Time of Max      Inflow      Inflow     Balance
                                   Inflow   Inflow   Occurrence      Volume      Volume       Error
  Node                 Type           CMS      CMS  days hr:min    10^6 ltr    10^6 ltr     Percent
  -------------------------------------------------------------------------------------------------
  J1                   JUNCTION     0.624    0.624     0  02:42        2.81        2.81       0.008
  J3                   JUNCTION     0.000    0.189     0  06:22           0        2.98       0.912
  CSO7                 JUNCTION     0.172    0.172     0  02:45       0.969       0.969       0.049
  J5                   JUNCTION     0.240    0.313     0  02:45        1.11        1.87       0.076
  CSO9                 JUNCTION     0.255    0.255     0  02:43        1.19        1.19       0.041
  J8                   JUNCTION     1.096    1.223     0  02:46        5.57        6.54       0.076
  CSO8                 JUNCTION     1.050    1.050     0  02:43        4.32        4.32       0.013
  J10                  JUNCTION     0.752    1.238     0  02:41        2.98        6.35      -0.061
  J13                  JUNCTION     0.899    0.899     0  02:42        3.74        3.74      -0.123
  J15                  JUNCTION     0.000    1.644     0  02:42           0          10       0.625
  J16                  JUNCTION     1.313    1.313     0  02:42        5.31        5.31      -0.014
  CSO10                JUNCTION     0.444    0.444     0  02:43        1.83        1.83       0.020
  J12                  JUNCTION     0.000    1.319     0  02:49           0        7.83      11.485
  J4                   JUNCTION     0.000    0.073     0  02:45           0       0.758       0.442
  J6                   JUNCTION     0.000    0.028     0  02:52           0       0.547       0.457
  J2                   JUNCTION     0.000    0.039     0  02:32           0       0.863       0.589
  J19                  JUNCTION     0.000    0.271     0  02:19           0        5.56       0.189
  J9                   JUNCTION     0.000    0.075     0  02:24           0        1.47       1.331
  J14                  JUNCTION     0.000    0.124     0  07:10           0        1.58       0.276
  J17                  JUNCTION     0.000    0.033     0  05:00           0        0.35       1.195
  J7                   JUNCTION     0.000    0.127     0  03:07           0       0.972       0.318
  J11                  JUNCTION     0.000    0.486     0  03:06           0        3.37       0.194
  J18                  JUNCTION     0.000    0.202     0  02:49           0        1.42       0.064
  Out_to_WWTP          OUTFALL      0.000    0.271     0  02:21           0        5.55       0.000
  T5                   STORAGE      0.000    0.624     0  02:42           0        2.81      16.631
  T4                   STORAGE      0.000    0.312     0  02:45           0        1.87      22.308
  T6                   STORAGE      0.000    1.222     0  02:46           0        6.54      13.085
  T3                   STORAGE      0.000    1.292     0  02:43           0        7.02      24.446
  T2                   STORAGE      0.000    0.898     0  02:42           0        3.75      33.613
  T1                   STORAGE      0.000    1.619     0  02:45           0        9.97       5.434
  
  
  **********************
  Node Surcharge Summary
  **********************
  
  Surcharging occurs when water rises above the top of the highest conduit.
  ---------------------------------------------------------------------
                                               Max. Height   Min. Depth
                                   Hours       Above Crown    Below Rim
  Node                 Type      Surcharged         Meters       Meters
  ---------------------------------------------------------------------
  CSO7                 JUNCTION        1.35          0.945        0.000
  CSO9                 JUNCTION        1.37          1.682        0.000
  CSO8                 JUNCTION        1.33          1.547        0.000
  CSO10                JUNCTION        1.04          0.560        0.000
  J4                   JUNCTION        1.32          0.919        0.781
  
  
  *********************
  Node Flooding Summary
  *********************
  
  Flooding refers to all water that overflows a node, whether it ponds or not.
  --------------------------------------------------------------------------
                                                             Total   Maximum
                                 Maximum   Time of Max       Flood    Ponded
                        Hours       Rate    Occurrence      Volume     Depth
  Node                 Flooded       CMS   days hr:min    10^6 ltr    Meters
  --------------------------------------------------------------------------
  CSO7                    1.17     0.100      0  02:45       0.210     0.000
  CSO9                    0.85     0.128      0  02:43       0.213     0.000
  CSO8                    0.88     0.564      0  02:43       0.942     0.000
  CSO10                   0.90     0.242      0  02:43       0.406     0.000
  T5                      1.56     0.584      0  02:42       1.141     0.000
  T4                      2.42     0.274      0  02:51       0.511     0.000
  T6                      3.21     1.182      0  02:49       3.773     0.000
  T3                      2.81     1.132      0  03:04       1.438     0.000
  T2                      4.11     0.883      0  02:42       1.456     0.000
  T1                      1.42     1.348      0  02:45       3.472     0.000
  
  
  **********************
  Storage Volume Summary
  **********************
  
  --------------------------------------------------------------------------------------------------
                         Average     Avg  Evap Exfil       Maximum     Max    Time of Max    Maximum
                          Volume    Pcnt  Pcnt  Pcnt        Volume    Pcnt     Occurrence    Outflow
  Storage Unit           1000 m3    Full  Loss  Loss       1000 m3    Full    days hr:min        CMS
  --------------------------------------------------------------------------------------------------
  T5                       0.355      71     0     0         0.500     100       0  02:32      0.039
  T4                       0.351      70     0     0         0.500     100       0  02:51      0.028
  T6                       0.447      75     0     0         0.600     100       0  02:24      0.075
  T3                       1.849      71     0     0         2.600     100       0  03:02      0.256
  T2                       0.727      73     0     0         1.000     100       0  02:42      0.033
  T1                       0.450      64     0     0         0.700     100       0  02:19      0.271
  
  
  ***********************
  Outfall Loading Summary
  ***********************
  
  -----------------------------------------------------------
                         Flow       Avg       Max       Total
                         Freq      Flow      Flow      Volume
  Outfall Node           Pcnt       CMS       CMS    10^6 ltr
  -----------------------------------------------------------
  Out_to_WWTP           99.01     0.199     0.271       5.549
  -----------------------------------------------------------
  System                99.01     0.199     0.271       5.549
  
  
  ********************
  Link Flow Summary
  ********************
  
  -----------------------------------------------------------------------------
                                 Maximum  Time of Max   Maximum    Max/    Max/
                                  |Flow|   Occurrence   |Veloc|    Full    Full
  Link                 Type          CMS  days hr:min     m/sec    Flow   Depth
  -----------------------------------------------------------------------------
  C1                   CONDUIT     0.039     0  03:20      1.09    0.01    0.11
  C6                   CONDUIT     0.073     0  02:45      1.29    1.16    0.81
  C2                   CONDUIT     0.028     0  03:36      1.01    0.03    0.17
  C9                   CONDUIT     0.127     0  03:07      1.29    0.43    0.59
  C16                  CONDUIT     0.488     0  02:27      1.81    0.05    0.16
  C3                   CONDUIT     0.124     0  07:12      1.84    0.05    0.14
  C19                  CONDUIT     0.030     0  05:01      0.63    0.01    0.24
  C11                  CONDUIT     0.188     0  06:30      1.80    0.01    0.13
  C20                  CONDUIT     1.312     0  02:42      3.57    0.04    0.18
  C22                  CONDUIT     0.202     0  02:49      1.58    0.09    0.37
  C12                  CONDUIT     0.075     0  04:40      0.59    0.01    0.28
  C17                  CONDUIT     1.233     0  02:42      3.31    0.06    0.33
  C10                  CONDUIT     1.222     0  02:46      1.66    0.13    0.62
  C13                  CONDUIT     1.292     0  02:43      1.45    0.08    0.76
  C18                  CONDUIT     0.898     0  02:42      1.72    0.03    0.56
  C23                  CONDUIT     1.619     0  02:45      1.35    0.18    0.64
  C4                   CONDUIT     0.624     0  02:42      1.98    0.15    0.63
  C7                   CONDUIT     0.312     0  02:45      1.43    0.08    0.59
  C14                  CONDUIT     0.271     0  02:21      2.08    0.02    0.09
  C5                   CONDUIT     0.073     0  02:45      1.42    1.24    1.00
  C8                   CONDUIT     0.127     0  03:07      1.75    1.60    0.86
  C15                  CONDUIT     0.486     0  03:06      3.42    1.55    0.83
  C21                  CONDUIT     0.202     0  02:49      1.82    1.16    0.69
  V4                   ORIFICE     0.028     0  02:52                      0.35
  V5                   ORIFICE     0.039     0  02:32                      1.00
  V1                   ORIFICE     0.271     0  02:19                      1.00
  V6                   ORIFICE     0.075     0  02:24                      0.43
  V3                   ORIFICE     0.124     0  07:10                      0.65
  V2                   ORIFICE     0.033     0  05:00                      0.24
  
  
  ***************************
  Flow Classification Summary
  ***************************
  
  -------------------------------------------------------------------------------------
                      Adjusted    ---------- Fraction of Time in Flow Class ---------- 
                       /Actual         Up    Down  Sub   Sup   Up    Down  Norm  Inlet 
  Conduit               Length    Dry  Dry   Dry   Crit  Crit  Crit  Crit  Ltd   Ctrl  
  -------------------------------------------------------------------------------------
  C1                      1.00   0.00  0.00  0.00  0.06  0.94  0.00  0.00  0.94  0.00
  C6                      1.00   0.00  0.00  0.00  0.20  0.80  0.00  0.00  0.00  0.00
  C2                      1.00   0.00  0.00  0.00  0.23  0.77  0.00  0.00  0.95  0.00
  C9                      1.00   0.00  0.00  0.00  1.00  0.00  0.00  0.00  1.00  0.00
  C16                     1.00   0.00  0.00  0.00  0.54  0.46  0.00  0.00  0.42  0.00
  C3                      1.00   0.00  0.00  0.00  0.05  0.95  0.00  0.00  0.77  0.00
  C19                     1.00   0.00  0.00  0.00  1.00  0.00  0.00  0.00  1.00  0.00
  C11                     1.00   0.00  0.00  0.00  0.36  0.64  0.00  0.00  1.00  0.00
  C20                     1.00   0.00  0.00  0.00  0.52  0.48  0.00  0.00  0.98  0.00
  C22                     1.00   0.00  0.00  0.00  0.76  0.24  0.00  0.00  1.00  0.00
  C12                     1.00   0.00  0.00  0.00  1.00  0.00  0.00  0.00  1.00  0.00
  C17                     1.00   0.00  0.00  0.00  0.64  0.36  0.00  0.00  0.93  0.00
  C10                     1.00   0.00  0.00  0.00  0.96  0.04  0.00  0.00  0.97  0.00
  C13                     1.00   0.00  0.00  0.00  0.85  0.15  0.00  0.00  0.26  0.00
  C18                     1.00   0.00  0.00  0.00  0.94  0.06  0.00  0.00  0.97  0.00
  C23                     1.00   0.00  0.00  0.00  0.84  0.16  0.00  0.00  0.94  0.00
  C4                      1.00   0.00  0.00  0.00  0.96  0.04  0.00  0.00  0.98  0.00
  C7                      1.00   0.00  0.00  0.00  0.94  0.06  0.00  0.00  0.97  0.00
  C14                     1.00   0.00  0.00  0.00  0.00  0.99  0.00  0.00  0.29  0.00
  C5                      1.00   0.00  0.00  0.00  0.91  0.09  0.00  0.00  0.80  0.00
  C8                      1.00   0.00  0.00  0.00  0.21  0.79  0.00  0.00  0.00  0.00
  C15                     1.00   0.00  0.00  0.00  0.00  1.00  0.00  0.00  0.00  0.00
  C21                     1.00   0.00  0.00  0.00  0.00  1.00  0.00  0.00  0.00  0.00
  
  
  *************************
  Conduit Surcharge Summary
  *************************
  
  ----------------------------------------------------------------------------
                                                           Hours        Hours 
                         --------- Hours Full --------   Above Full   Capacity
  Conduit                Both Ends  Upstream  Dnstream   Normal Flow   Limited
  ----------------------------------------------------------------------------
  C6                          0.01      1.32      0.01      1.22         0.01
  C10                         0.01      0.01      6.01      0.01         0.01
  C13                         0.01      0.01      5.61      0.01         0.01
  C18                         0.01      0.01      5.70      0.01         0.01
  C23                         0.01      0.01      6.07      0.01         0.01
  C4                          0.01      0.01      6.18      0.01         0.01
  C7                          0.01      0.01      5.93      0.01         0.01
  C5                          1.35      1.35      1.46      1.42         1.32
  C8                          0.01      1.37      0.01      1.40         0.01
  C15                         0.01      1.33      0.01      1.42         0.01
  C21                         0.01      1.04      0.01      1.05         0.01
  

  Analysis begun on:  Fri Sep  3 18:51:47 2021
  Analysis ended on:  Fri Sep  3 18:51:47 2021
  Total elapsed time: < 1 sec