
  EPA STORM WATER MANAGEMENT MODEL - VERSION 5.1 (Build 5.3.0.dev0)
  --------------------------------------------------------------

  
  *********************************************************
  NOTE: The summary statistics displayed in this report are
  based on results found at every computational time step,  
  not just on results from each reporting time step.
  *********************************************************
  
  ****************
  Analysis Options
  ****************
  Flow Units ............... CMS
  Process Models:
    Rainfall/Runoff ........ YES
    RDII ................... NO
    Snowmelt ............... NO
    Groundwater ............ NO
    Flow Routing ........... YES
    Ponding Allowed ........ YES
    Water Quality .......... NO
  Infiltration Method ...... HORTON
  Flow Routing Method ...... DYNWAVE
  Surcharge Method ......... EXTRAN
  Starting Date ............ 08/28/2015 08:00:00
  Ending Date .............. 08/28/2015 15:50:00
  Antecedent Dry Days ...... 0.0
  Report Time Step ......... 00:01:00
  Wet Time Step ............ 00:01:00
  Dry Time Step ............ 00:01:00
  Routing Time Step ........ 5.00 sec
  Variable Time Step ....... YES
  Maximum Trials ........... 8
  Number of Threads ........ 1
  Head Tolerance ........... 0.001500 m
  
  
  **************************        Volume         Depth
  Runoff Quantity Continuity     hectare-m            mm
  **************************     ---------       -------
  Total Precipitation ......         3.208        17.804
  Evaporation Loss .........         0.000         0.000
  Infiltration Loss ........         0.000         0.000
  Surface Runoff ...........         3.185        17.673
  Final Storage ............         0.024         0.133
  Continuity Error (%) .....        -0.006
  
  
  **************************        Volume        Volume
  Flow Routing Continuity        hectare-m      10^6 ltr
  **************************     ---------     ---------
  Dry Weather Inflow .......         0.396         3.956
  Wet Weather Inflow .......         3.185        31.847
  Groundwater Inflow .......         0.000         0.000
  RDII Inflow ..............         0.000         0.000
  External Inflow ..........         0.000         0.000
  External Outflow .........         0.563         5.629
  Flooding Loss ............         1.966        19.658
  Evaporation Loss .........         0.000         0.000
  Exfiltration Loss ........         0.000         0.000
  Initial Stored Volume ....         0.000         0.000
  Final Stored Volume ......         0.809         8.087
  Continuity Error (%) .....         6.781
  
  
  *************************
  Highest Continuity Errors
  *************************
  Node T2 (20.92%)
  Node T3 (16.97%)
  Node T4 (15.67%)
  Node T5 (12.02%)
  Node T6 (9.35%)
  
  
  ***************************
  Time-Step Critical Elements
  ***************************
  None
  
  
  ********************************
  Highest Flow Instability Indexes
  ********************************
  All links are stable.
  
  
  *************************
  Routing Time Step Summary
  *************************
  Minimum Time Step           :     1.31 sec
  Average Time Step           :     5.00 sec
  Maximum Time Step           :     5.00 sec
  Percent in Steady State     :     0.00
  Average Iterations per Step :     2.18
  Percent Not Converging      :     0.51
  
  
  ***************************
  Subcatchment Runoff Summary
  ***************************
  
  ------------------------------------------------------------------------------------------------------------------------------
                            Total      Total      Total      Total     Imperv       Perv      Total       Total     Peak  Runoff
                           Precip      Runon       Evap      Infil     Runoff     Runoff     Runoff      Runoff   Runoff   Coeff
  Subcatchment                 mm         mm         mm         mm         mm         mm         mm    10^6 ltr      CMS
  ------------------------------------------------------------------------------------------------------------------------------
  SC01                      17.80       0.00       0.00       0.00      17.72       0.00      17.72        5.85     1.49   0.995
  SC02                      17.80       0.00       0.00       0.00      17.71       0.00      17.71        4.03     1.02   0.995
  SC03                      17.80       0.00       0.00       0.00      17.74       0.00      17.74        3.19     0.85   0.996
  SC04                      17.80       0.00       0.00       0.00      17.61       0.00      17.61        1.21     0.27   0.989
  SC05                      17.80       0.00       0.00       0.00      17.71       0.00      17.71        2.76     0.70   0.995
  SC06                      17.80       0.00       0.00       0.00      17.55       0.00      17.55        5.71     1.22   0.986
  SC07                      17.80       0.00       0.00       0.00      17.61       0.00      17.61        0.84     0.19   0.989
  SC08                      17.80       0.00       0.00       0.00      17.69       0.00      17.69        4.95     1.20   0.993
  SC09                      17.80       0.00       0.00       0.00      17.66       0.00      17.66        1.22     0.29   0.992
  SC010                     17.80       0.00       0.00       0.00      17.69       0.00      17.69        2.08     0.51   0.994
  
  
  ******************
  Node Depth Summary
  ******************
  
  ---------------------------------------------------------------------------------
                                 Average  Maximum  Maximum  Time of Max    Reported
                                   Depth    Depth      HGL   Occurrence   Max Depth
  Node                 Type       Meters   Meters   Meters  days hr:min      Meters
  ---------------------------------------------------------------------------------
  J1                   JUNCTION     0.09     0.28    34.28     0  02:18        0.28
  J3                   JUNCTION     0.10     0.13    18.13     0  03:42        0.13
  CSO7                 JUNCTION     0.31     1.20    35.20     0  01:44        1.20
  J5                   JUNCTION     0.08     0.20    32.20     0  02:21        0.20
  CSO9                 JUNCTION     0.45     2.00    42.00     0  01:48        2.00
  J8                   JUNCTION     0.14     0.38    36.38     0  02:22        0.38
  CSO8                 JUNCTION     0.46     2.00    34.00     0  01:45        2.00
  J10                  JUNCTION     0.12     0.35    29.35     0  02:17        0.35
  J13                  JUNCTION     0.08     0.27    29.27     0  02:18        0.27
  J15                  JUNCTION     0.19     0.45    15.45     0  02:20        0.45
  J16                  JUNCTION     0.09     0.30    30.30     0  02:18        0.30
  CSO10                JUNCTION     0.26     1.00    31.00     0  01:44        1.00
  J12                  JUNCTION     0.73     1.07    27.07     0  02:41        1.07
  J4                   JUNCTION     0.22     1.24    34.24     0  01:44        0.75
  J6                   JUNCTION     0.06     0.07    25.07     0  03:16        0.07
  J2                   JUNCTION     0.07     0.08    25.08     0  02:59        0.08
  J19                  JUNCTION     0.14     0.17     8.17     0  02:03        0.17
  J9                   JUNCTION     0.09     0.11    29.11     0  03:40        0.11
  J14                  JUNCTION     0.09     0.15    20.15     0  04:40        0.15
  J17                  JUNCTION     0.05     0.07    20.07     0  07:11        0.07
  J7                   JUNCTION     0.10     0.23    39.23     0  03:03        0.23
  J11                  JUNCTION     0.12     0.30    31.30     0  03:03        0.30
  J18                  JUNCTION     0.07     0.16    29.16     0  02:21        0.16
  Out_to_WWTP          OUTFALL      0.14     0.17     6.17     0  03:58        0.17
  T5                   STORAGE      3.69     5.00    32.00     0  02:11        5.00
  T4                   STORAGE      3.67     5.00    32.00     0  02:30        5.00
  T6                   STORAGE      3.80     5.00    36.00     0  02:06        5.00
  T3                   STORAGE      3.71     5.00    27.00     0  02:42        5.00
  T2                   STORAGE      3.79     5.00    26.00     0  02:19        5.00
  T1                   STORAGE      3.27     5.00    15.00     0  02:01        5.00
  
  
  *******************
  Node Inflow Summary
  *******************
  
  -------------------------------------------------------------------------------------------------
                                  Maximum  Maximum                  Lateral       Total        Flow
                                  Lateral    Total  Time of Max      Inflow      Inflow     Balance
                                   Inflow   Inflow   Occurrence      Volume      Volume       Error
  Node                 Type           CMS      CMS  days hr:min    10^6 ltr    10^6 ltr     Percent
  -------------------------------------------------------------------------------------------------
  J1                   JUNCTION     0.718    0.718     0  02:18        3.33        3.33       0.002
  J3                   JUNCTION     0.000    0.187     0  03:40           0        2.89       1.018
  CSO7                 JUNCTION     0.197    0.197     0  02:21        1.13        1.13       0.043
  J5                   JUNCTION     0.276    0.349     0  02:21        1.34        2.13       0.061
  CSO9                 JUNCTION     0.294    0.294     0  02:19        1.41        1.41       0.032
  J8                   JUNCTION     1.256    1.383     0  02:22        6.65        7.71       0.057
  CSO8                 JUNCTION     1.213    1.213     0  02:19        5.24        5.24       0.009
  J10                  JUNCTION     0.865    1.351     0  02:17        3.58        7.26      -0.056
  J13                  JUNCTION     1.036    1.036     0  02:18         4.5         4.5      -0.123
  J15                  JUNCTION     0.000    1.834     0  02:18           0        11.2       0.562
  J16                  JUNCTION     1.515    1.515     0  02:17         6.4         6.4      -0.016
  CSO10                JUNCTION     0.513    0.513     0  02:18        2.22        2.22       0.014
  J12                  JUNCTION     0.000    1.421     0  02:17           0        8.95       9.990
  J4                   JUNCTION     0.000    0.074     0  01:43           0       0.792       0.426
  J6                   JUNCTION     0.000    0.028     0  02:30           0       0.569       0.701
  J2                   JUNCTION     0.000    0.039     0  02:11           0       0.884       0.572
  J19                  JUNCTION     0.000    0.271     0  02:02           0        5.64       0.177
  J9                   JUNCTION     0.000    0.075     0  02:06           0        1.67       1.059
  J14                  JUNCTION     0.000    0.123     0  03:40           0        1.45       0.303
  J17                  JUNCTION     0.000    0.033     0  07:10           0       0.356       1.177
  J7                   JUNCTION     0.000    0.127     0  03:02           0        1.06       0.294
  J11                  JUNCTION     0.000    0.486     0  03:03           0        3.69       0.180
  J18                  JUNCTION     0.000    0.202     0  02:21           0        1.55       0.055
  Out_to_WWTP          OUTFALL      0.000    0.271     0  02:03           0        5.63       0.000
  T5                   STORAGE      0.000    0.718     0  02:18           0        3.33      13.665
  T4                   STORAGE      0.000    0.349     0  02:21           0        2.13      18.582
  T6                   STORAGE      0.000    1.382     0  02:22           0         7.7      10.320
  T3                   STORAGE      0.000    1.478     0  02:44           0        8.13      20.434
  T2                   STORAGE      0.000    1.036     0  02:18           0         4.5      26.457
  T1                   STORAGE      0.000    1.805     0  02:20           0        11.1       4.223
  
  
  **********************
  Node Surcharge Summary
  **********************
  
  Surcharging occurs when water rises above the top of the highest conduit.
  ---------------------------------------------------------------------
                                               Max. Height   Min. Depth
                                   Hours       Above Crown    Below Rim
  Node                 Type      Surcharged         Meters       Meters
  ---------------------------------------------------------------------
  CSO7                 JUNCTION        1.63          0.945        0.000
  CSO9                 JUNCTION        1.63          1.682        0.000
  CSO8                 JUNCTION        1.62          1.547        0.000
  CSO10                JUNCTION        1.43          0.560        0.000
  J4                   JUNCTION        1.60          0.938        0.762
  
  
  *********************
  Node Flooding Summary
  *********************
  
  Flooding refers to all water that overflows a node, whether it ponds or not.
  --------------------------------------------------------------------------
                                                             Total   Maximum
                                 Maximum   Time of Max       Flood    Ponded
                        Hours       Rate    Occurrence      Volume     Depth
  Node                 Flooded       CMS   days hr:min    10^6 ltr    Meters
  --------------------------------------------------------------------------
  CSO7                    1.45     0.124      0  02:21       0.334     0.000
  CSO9                    1.25     0.167      0  02:19       0.359     0.000
  CSO8                    1.30     0.727      0  02:19       1.557     0.000
  CSO10                   1.32     0.311      0  02:18       0.667     0.000
  T5                      1.77     0.679      0  02:18       1.639     0.000
  T4                      2.44     0.300      0  02:30       0.768     0.000
  T6                      3.08     1.306      0  02:22       4.802     0.000
  T3                      4.65     1.418      0  02:44       2.676     0.000
  T2                      4.69     1.017      0  02:19       2.213     0.000
  T1                      1.82     1.534      0  02:20       4.643     0.000
  
  
  **********************
  Storage Volume Summary
  **********************
  
  --------------------------------------------------------------------------------------------------
                         Average     Avg  Evap Exfil       Maximum     Max    Time of Max    Maximum
                          Volume    Pcnt  Pcnt  Pcnt        Volume    Pcnt     Occurrence    Outflow
  Storage Unit           1000 m3    Full  Loss  Loss       1000 m3    Full    days hr:min        CMS
  --------------------------------------------------------------------------------------------------
  T5                       0.369      74     0     0         0.500     100       0  02:11      0.039
  T4                       0.367      73     0     0         0.500     100       0  02:30      0.028
  T6                       0.456      76     0     0         0.600     100       0  02:06      0.075
  T3                       1.930      74     0     0         2.600     100       0  02:42      0.278
  T2                       0.759      76     0     0         1.000     100       0  02:19      0.033
  T1                       0.458      65     0     0         0.700     100       0  02:01      0.271
  
  
  ***********************
  Outfall Loading Summary
  ***********************
  
  -----------------------------------------------------------
                         Flow       Avg       Max       Total
                         Freq      Flow      Flow      Volume
  Outfall Node           Pcnt       CMS       CMS    10^6 ltr
  -----------------------------------------------------------
  Out_to_WWTP           99.01     0.202     0.271       5.629
  -----------------------------------------------------------
  System                99.01     0.202     0.271       5.629
  
  
  ********************
  Link Flow Summary
  ********************
  
  -----------------------------------------------------------------------------
                                 Maximum  Time of Max   Maximum    Max/    Max/
                                  |Flow|   Occurrence   |Veloc|    Full    Full
  Link                 Type          CMS  days hr:min     m/sec    Flow   Depth
  -----------------------------------------------------------------------------
  C1                   CONDUIT     0.039     0  02:59      1.14    0.01    0.11
  C6                   CONDUIT     0.073     0  02:21      1.29    1.17    0.83
  C2                   CONDUIT     0.028     0  03:14      1.01    0.03    0.17
  C9                   CONDUIT     0.127     0  03:02      1.31    0.43    0.61
  C16                  CONDUIT     0.487     0  01:53      1.79    0.05    0.16
  C3                   CONDUIT     0.121     0  03:40      1.81    0.05    0.14
  C19                  CONDUIT     0.030     0  07:11      0.68    0.01    0.25
  C11                  CONDUIT     0.178     0  03:42      1.79    0.01    0.14
  C20                  CONDUIT     1.514     0  02:18      3.78    0.05    0.19
  C22                  CONDUIT     0.202     0  02:21      1.62    0.09    0.39
  C12                  CONDUIT     0.075     0  03:40      0.60    0.01    0.29
  C17                  CONDUIT     1.346     0  02:17      3.40    0.07    0.34
  C10                  CONDUIT     1.382     0  02:22      1.66    0.14    0.63
  C13                  CONDUIT     1.478     0  02:44      1.51    0.09    0.77
  C18                  CONDUIT     1.036     0  02:18      1.72    0.04    0.57
  C23                  CONDUIT     1.805     0  02:20      1.48    0.20    0.65
  C4                   CONDUIT     0.718     0  02:18      1.98    0.17    0.64
  C7                   CONDUIT     0.349     0  02:21      1.43    0.09    0.60
  C14                  CONDUIT     0.271     0  02:03      2.08    0.02    0.09
  C5                   CONDUIT     0.074     0  01:43      1.44    1.26    1.00
  C8                   CONDUIT     0.127     0  03:02      1.75    1.60    0.86
  C15                  CONDUIT     0.486     0  03:03      3.42    1.55    0.83
  C21                  CONDUIT     0.202     0  02:21      1.82    1.16    0.69
  V4                   ORIFICE     0.028     0  02:30                      0.35
  V5                   ORIFICE     0.039     0  02:11                      1.00
  V1                   ORIFICE     0.271     0  02:02                      1.00
  V6                   ORIFICE     0.075     0  02:06                      0.43
  V3                   ORIFICE     0.123     0  03:40                      0.65
  V2                   ORIFICE     0.033     0  07:10                      0.24
  
  
  ***************************
  Flow Classification Summary
  ***************************
  
  -------------------------------------------------------------------------------------
                      Adjusted    ---------- Fraction of Time in Flow Class ---------- 
                       /Actual         Up    Down  Sub   Sup   Up    Down  Norm  Inlet 
  Conduit               Length    Dry  Dry   Dry   Crit  Crit  Crit  Crit  Ltd   Ctrl  
  -------------------------------------------------------------------------------------
  C1                      1.00   0.00  0.00  0.00  0.00  1.00  0.00  0.00  0.94  0.00
  C6                      1.00   0.00  0.00  0.00  0.23  0.77  0.00  0.00  0.00  0.00
  C2                      1.00   0.00  0.00  0.00  0.13  0.87  0.00  0.00  0.95  0.00
  C9                      1.00   0.00  0.00  0.00  1.00  0.00  0.00  0.00  1.00  0.00
  C16                     1.00   0.00  0.00  0.00  0.54  0.46  0.00  0.00  0.48  0.00
  C3                      1.00   0.00  0.00  0.00  0.05  0.95  0.00  0.00  0.90  0.00
  C19                     1.00   0.00  0.00  0.00  1.00  0.00  0.00  0.00  1.00  0.00
  C11                     1.00   0.00  0.00  0.00  0.36  0.64  0.00  0.00  1.00  0.00
  C20                     1.00   0.00  0.00  0.00  0.53  0.47  0.00  0.00  0.98  0.00
  C22                     1.00   0.00  0.00  0.00  0.79  0.21  0.00  0.00  1.00  0.00
  C12                     1.00   0.00  0.00  0.00  1.00  0.00  0.00  0.00  1.00  0.00
  C17                     1.00   0.00  0.00  0.00  0.68  0.32  0.00  0.00  0.93  0.00
  C10                     1.00   0.00  0.00  0.00  0.96  0.04  0.00  0.00  0.97  0.00
  C13                     1.00   0.00  0.00  0.00  0.84  0.16  0.00  0.00  0.21  0.00
  C18                     1.00   0.00  0.00  0.00  0.94  0.06  0.00  0.00  0.97  0.00
  C23                     1.00   0.00  0.00  0.00  0.83  0.17  0.00  0.00  0.94  0.00
  C4                      1.00   0.00  0.00  0.00  0.96  0.04  0.00  0.00  0.98  0.00
  C7                      1.00   0.00  0.00  0.00  0.94  0.06  0.00  0.00  0.97  0.00
  C14                     1.00   0.00  0.00  0.00  0.00  0.99  0.00  0.00  0.34  0.00
  C5                      1.00   0.00  0.00  0.00  0.92  0.08  0.00  0.00  0.77  0.00
  C8                      1.00   0.00  0.00  0.00  0.24  0.76  0.00  0.00  0.00  0.00
  C15                     1.00   0.00  0.00  0.00  0.00  1.00  0.00  0.00  0.00  0.00
  C21                     1.00   0.00  0.00  0.00  0.00  1.00  0.00  0.00  0.00  0.00
  
  
  *************************
  Conduit Surcharge Summary
  *************************
  
  ----------------------------------------------------------------------------
                                                           Hours        Hours 
                         --------- Hours Full --------   Above Full   Capacity
  Conduit                Both Ends  Upstream  Dnstream   Normal Flow   Limited
  ----------------------------------------------------------------------------
  C6                          0.01      1.60      0.01      1.50         0.01
  C10                         0.01      0.01      6.16      0.01         0.01
  C13                         0.01      0.01      5.86      0.01         0.01
  C18                         0.01      0.01      5.95      0.01         0.01
  C23                         0.01      0.01      6.22      0.01         0.01
  C4                          0.01      0.01      6.31      0.01         0.01
  C7                          0.01      0.01      6.11      0.01         0.01
  C5                          1.61      1.63      1.71      1.67         1.58
  C8                          0.01      1.63      0.01      1.65         0.01
  C15                         0.01      1.62      0.01      1.67         0.01
  C21                         0.01      1.43      0.01      1.43         0.01
  

  Analysis begun on:  Fri Sep  3 18:52:53 2021
  Analysis ended on:  Fri Sep  3 18:52:54 2021
  Total elapsed time: 00:00:01