
  EPA STORM WATER MANAGEMENT MODEL - VERSION 5.1 (Build 5.3.0.dev0)
  --------------------------------------------------------------

  
  *********************************************************
  NOTE: The summary statistics displayed in this report are
  based on results found at every computational time step,  
  not just on results from each reporting time step.
  *********************************************************
  
  ****************
  Analysis Options
  ****************
  Flow Units ............... CMS
  Process Models:
    Rainfall/Runoff ........ YES
    RDII ................... NO
    Snowmelt ............... NO
    Groundwater ............ NO
    Flow Routing ........... YES
    Ponding Allowed ........ YES
    Water Quality .......... NO
  Infiltration Method ...... HORTON
  Flow Routing Method ...... DYNWAVE
  Surcharge Method ......... EXTRAN
  Starting Date ............ 08/28/2015 08:00:00
  Ending Date .............. 08/28/2015 15:50:00
  Antecedent Dry Days ...... 0.0
  Report Time Step ......... 00:01:00
  Wet Time Step ............ 00:01:00
  Dry Time Step ............ 00:01:00
  Routing Time Step ........ 5.00 sec
  Variable Time Step ....... YES
  Maximum Trials ........... 8
  Number of Threads ........ 1
  Head Tolerance ........... 0.001500 m
  
  
  **************************        Volume         Depth
  Runoff Quantity Continuity     hectare-m            mm
  **************************     ---------       -------
  Total Precipitation ......         1.464         8.123
  Evaporation Loss .........         0.000         0.000
  Infiltration Loss ........         0.000         0.000
  Surface Runoff ...........         1.440         7.992
  Final Storage ............         0.024         0.131
  Continuity Error (%) .....        -0.007
  
  
  **************************        Volume        Volume
  Flow Routing Continuity        hectare-m      10^6 ltr
  **************************     ---------     ---------
  Dry Weather Inflow .......         0.396         3.955
  Wet Weather Inflow .......         1.440        14.401
  Groundwater Inflow .......         0.000         0.000
  RDII Inflow ..............         0.000         0.000
  External Inflow ..........         0.000         0.000
  External Outflow .........         0.537         5.367
  Flooding Loss ............         0.282         2.822
  Evaporation Loss .........         0.000         0.000
  Exfiltration Loss ........         0.000         0.000
  Initial Stored Volume ....         0.000         0.000
  Final Stored Volume ......         0.773         7.727
  Continuity Error (%) .....        13.295
  
  
  *************************
  Highest Continuity Errors
  *************************
  Node T2 (41.21%)
  Node T4 (24.77%)
  Node T3 (23.59%)
  Node T5 (22.11%)
  Node T6 (16.98%)
  
  
  ***************************
  Time-Step Critical Elements
  ***************************
  None
  
  
  ********************************
  Highest Flow Instability Indexes
  ********************************
  Link C13 (2)
  
  
  *************************
  Routing Time Step Summary
  *************************
  Minimum Time Step           :     4.50 sec
  Average Time Step           :     5.00 sec
  Maximum Time Step           :     5.00 sec
  Percent in Steady State     :     0.00
  Average Iterations per Step :     2.18
  Percent Not Converging      :     0.71
  
  
  ***************************
  Subcatchment Runoff Summary
  ***************************
  
  ------------------------------------------------------------------------------------------------------------------------------
                            Total      Total      Total      Total     Imperv       Perv      Total       Total     Peak  Runoff
                           Precip      Runon       Evap      Infil     Runoff     Runoff     Runoff      Runoff   Runoff   Coeff
  Subcatchment                 mm         mm         mm         mm         mm         mm         mm    10^6 ltr      CMS
  ------------------------------------------------------------------------------------------------------------------------------
  SC01                       8.12       0.00       0.00       0.00       8.04       0.00       8.04        2.65     0.60   0.989
  SC02                       8.12       0.00       0.00       0.00       8.03       0.00       8.03        1.83     0.41   0.989
  SC03                       8.12       0.00       0.00       0.00       8.05       0.00       8.05        1.45     0.34   0.992
  SC04                       8.12       0.00       0.00       0.00       7.93       0.00       7.93        0.55     0.11   0.976
  SC05                       8.12       0.00       0.00       0.00       8.03       0.00       8.03        1.25     0.28   0.989
  SC06                       8.12       0.00       0.00       0.00       7.87       0.00       7.87        2.56     0.51   0.969
  SC07                       8.12       0.00       0.00       0.00       7.93       0.00       7.93        0.38     0.08   0.976
  SC08                       8.12       0.00       0.00       0.00       8.01       0.00       8.01        2.24     0.49   0.986
  SC09                       8.12       0.00       0.00       0.00       7.98       0.00       7.98        0.55     0.12   0.982
  SC010                      8.12       0.00       0.00       0.00       8.01       0.00       8.01        0.94     0.21   0.986
  
  
  ******************
  Node Depth Summary
  ******************
  
  ---------------------------------------------------------------------------------
                                 Average  Maximum  Maximum  Time of Max    Reported
                                   Depth    Depth      HGL   Occurrence   Max Depth
  Node                 Type       Meters   Meters   Meters  days hr:min      Meters
  ---------------------------------------------------------------------------------
  J1                   JUNCTION     0.08     0.18    34.18     0  03:01        0.18
  J3                   JUNCTION     0.10     0.13    18.13     0  06:10        0.13
  CSO7                 JUNCTION     0.17     1.20    35.20     0  02:40        1.20
  J5                   JUNCTION     0.07     0.15    32.15     0  03:01        0.15
  CSO9                 JUNCTION     0.18     1.98    41.98     0  03:01        1.98
  J8                   JUNCTION     0.12     0.26    36.26     0  03:01        0.26
  CSO8                 JUNCTION     0.21     2.00    34.00     0  02:59        2.00
  J10                  JUNCTION     0.10     0.28    29.28     0  03:01        0.27
  J13                  JUNCTION     0.07     0.18    29.18     0  03:01        0.18
  J15                  JUNCTION     0.16     0.32    15.32     0  03:02        0.32
  J16                  JUNCTION     0.07     0.19    30.19     0  03:01        0.19
  CSO10                JUNCTION     0.14     1.00    31.00     0  02:58        1.00
  J12                  JUNCTION     0.43     0.76    26.76     0  07:45        0.76
  J4                   JUNCTION     0.16     1.15    34.15     0  02:40        0.76
  J6                   JUNCTION     0.06     0.07    25.07     0  04:54        0.07
  J2                   JUNCTION     0.07     0.08    25.08     0  03:50        0.08
  J19                  JUNCTION     0.14     0.17     8.17     0  02:44        0.17
  J9                   JUNCTION     0.09     0.11    29.11     0  03:40        0.11
  J14                  JUNCTION     0.09     0.15    20.15     0  07:11        0.15
  J17                  JUNCTION     0.04     0.07    20.07     0  05:51        0.07
  J7                   JUNCTION     0.09     0.22    39.22     0  03:01        0.22
  J11                  JUNCTION     0.11     0.30    31.30     0  03:01        0.30
  J18                  JUNCTION     0.06     0.16    29.16     0  03:01        0.16
  Out_to_WWTP          OUTFALL      0.14     0.17     6.17     0  03:49        0.17
  T5                   STORAGE      3.37     5.00    32.00     0  03:02        5.00
  T4                   STORAGE      3.23     4.94    31.94     0  04:52        4.94
  T6                   STORAGE      3.54     5.00    36.00     0  02:46        5.00
  T3                   STORAGE      3.14     4.77    26.77     0  07:49        4.77
  T2                   STORAGE      3.38     5.00    26.00     0  04:57        5.00
  T1                   STORAGE      3.04     5.00    15.00     0  02:43        5.00
  
  
  *******************
  Node Inflow Summary
  *******************
  
  -------------------------------------------------------------------------------------------------
                                  Maximum  Maximum                  Lateral       Total        Flow
                                  Lateral    Total  Time of Max      Inflow      Inflow     Balance
                                   Inflow   Inflow   Occurrence      Volume      Volume       Error
  Node                 Type           CMS      CMS  days hr:min    10^6 ltr    10^6 ltr     Percent
  -------------------------------------------------------------------------------------------------
  J1                   JUNCTION     0.305    0.305     0  03:01        1.81        1.81       0.019
  J3                   JUNCTION     0.000    0.186     0  06:02           0        2.92       0.982
  CSO7                 JUNCTION     0.089    0.089     0  03:01       0.667       0.667       0.068
  J5                   JUNCTION     0.118    0.189     0  03:01       0.674        1.33       0.114
  CSO9                 JUNCTION     0.126    0.126     0  03:01       0.747       0.747       0.070
  J8                   JUNCTION     0.549    0.669     0  03:01         3.5        4.25       0.118
  CSO8                 JUNCTION     0.500    0.500     0  03:01        2.53        2.53       0.023
  J10                  JUNCTION     0.355    0.837     0  03:01        1.84        4.36       0.060
  J13                  JUNCTION     0.431    0.431     0  03:01        2.29        2.29      -0.169
  J15                  JUNCTION     0.000    0.942     0  03:01           0         7.5       0.845
  J16                  JUNCTION     0.625    0.625     0  03:01        3.21        3.21      -0.009
  CSO10                JUNCTION     0.212    0.212     0  03:01        1.08        1.08       0.034
  J12                  JUNCTION     0.000    0.898     0  03:01           0        6.19       9.972
  J4                   JUNCTION     0.000    0.071     0  03:01           0       0.656       0.526
  J6                   JUNCTION     0.000    0.028     0  04:52           0       0.549       0.723
  J2                   JUNCTION     0.000    0.039     0  03:02           0       0.836       0.611
  J19                  JUNCTION     0.000    0.271     0  02:43           0        5.38       0.192
  J9                   JUNCTION     0.000    0.075     0  02:46           0        1.58       1.099
  J14                  JUNCTION     0.000    0.120     0  07:14           0        1.55       0.276
  J17                  JUNCTION     0.000    0.033     0  05:50           0       0.329       1.248
  J7                   JUNCTION     0.000    0.126     0  03:01           0       0.746       0.422
  J11                  JUNCTION     0.000    0.486     0  03:01           0        2.53       0.245
  J18                  JUNCTION     0.000    0.202     0  03:01           0        1.08       0.082
  Out_to_WWTP          OUTFALL      0.000    0.271     0  02:45           0        5.37       0.000
  T5                   STORAGE      0.000    0.302     0  03:01           0        1.81      28.382
  T4                   STORAGE      0.000    0.187     0  03:01           0        1.33      32.932
  T6                   STORAGE      0.000    0.659     0  03:01           0        4.24      20.458
  T3                   STORAGE      0.000    0.880     0  03:02           0        5.63      30.866
  T2                   STORAGE      0.000    0.426     0  03:01           0         2.3      70.084
  T1                   STORAGE      0.000    0.912     0  03:02           0        7.44       7.055
  
  
  **********************
  Node Surcharge Summary
  **********************
  
  Surcharging occurs when water rises above the top of the highest conduit.
  ---------------------------------------------------------------------
                                               Max. Height   Min. Depth
                                   Hours       Above Crown    Below Rim
  Node                 Type      Surcharged         Meters       Meters
  ---------------------------------------------------------------------
  CSO7                 JUNCTION        0.63          0.945        0.000
  CSO9                 JUNCTION        0.70          1.662        0.020
  CSO8                 JUNCTION        0.60          1.547        0.000
  CSO10                JUNCTION        0.22          0.560        0.000
  J4                   JUNCTION        0.59          0.845        0.855
  
  
  *********************
  Node Flooding Summary
  *********************
  
  Flooding refers to all water that overflows a node, whether it ponds or not.
  --------------------------------------------------------------------------
                                                             Total   Maximum
                                 Maximum   Time of Max       Flood    Ponded
                        Hours       Rate    Occurrence      Volume     Depth
  Node                 Flooded       CMS   days hr:min    10^6 ltr    Meters
  --------------------------------------------------------------------------
  CSO7                    0.38     0.019      0  03:01       0.011     0.000
  CSO8                    0.04     0.014      0  03:01       0.001     0.000
  CSO10                   0.06     0.010      0  03:01       0.001     0.000
  T5                      0.91     0.244      0  03:02       0.175     0.000
  T6                      2.34     0.584      0  03:01       1.437     0.000
  T2                      1.28     0.012      0  04:57       0.024     0.000
  T1                      0.96     0.641      0  03:02       1.173     0.000
  
  
  **********************
  Storage Volume Summary
  **********************
  
  --------------------------------------------------------------------------------------------------
                         Average     Avg  Evap Exfil       Maximum     Max    Time of Max    Maximum
                          Volume    Pcnt  Pcnt  Pcnt        Volume    Pcnt     Occurrence    Outflow
  Storage Unit           1000 m3    Full  Loss  Loss       1000 m3    Full    days hr:min        CMS
  --------------------------------------------------------------------------------------------------
  T5                       0.337      67     0     0         0.500     100       0  03:02      0.039
  T4                       0.323      65     0     0         0.494      99       0  04:52      0.028
  T6                       0.425      71     0     0         0.600     100       0  02:46      0.075
  T3                       1.631      63     0     0         2.481      95       0  07:49      0.193
  T2                       0.676      68     0     0         1.000     100       0  04:57      0.033
  T1                       0.425      61     0     0         0.700     100       0  02:43      0.271
  
  
  ***********************
  Outfall Loading Summary
  ***********************
  
  -----------------------------------------------------------
                         Flow       Avg       Max       Total
                         Freq      Flow      Flow      Volume
  Outfall Node           Pcnt       CMS       CMS    10^6 ltr
  -----------------------------------------------------------
  Out_to_WWTP           99.01     0.192     0.271       5.367
  -----------------------------------------------------------
  System                99.01     0.192     0.271       5.367
  
  
  ********************
  Link Flow Summary
  ********************
  
  -----------------------------------------------------------------------------
                                 Maximum  Time of Max   Maximum    Max/    Max/
                                  |Flow|   Occurrence   |Veloc|    Full    Full
  Link                 Type          CMS  days hr:min     m/sec    Flow   Depth
  -----------------------------------------------------------------------------
  C1                   CONDUIT     0.039     0  03:50      1.07    0.01    0.11
  C6                   CONDUIT     0.071     0  03:01      1.29    1.13    0.74
  C2                   CONDUIT     0.028     0  04:54      1.00    0.03    0.17
  C9                   CONDUIT     0.121     0  03:01      1.27    0.41    0.49
  C16                  CONDUIT     0.484     0  03:01      1.76    0.05    0.14
  C3                   CONDUIT     0.121     0  07:13      1.81    0.05    0.14
  C19                  CONDUIT     0.030     0  05:51      0.62    0.01    0.18
  C11                  CONDUIT     0.185     0  06:10      1.80    0.01    0.11
  C20                  CONDUIT     0.618     0  03:01      2.62    0.02    0.13
  C22                  CONDUIT     0.202     0  03:01      1.59    0.09    0.30
  C12                  CONDUIT     0.075     0  03:40      0.60    0.01    0.22
  C17                  CONDUIT     0.823     0  03:01      2.90    0.04    0.20
  C10                  CONDUIT     0.659     0  03:01      1.66    0.07    0.59
  C13                  CONDUIT     0.880     0  03:02      1.45    0.05    0.69
  C18                  CONDUIT     0.426     0  03:01      1.72    0.02    0.54
  C23                  CONDUIT     0.912     0  03:02      1.24    0.10    0.61
  C4                   CONDUIT     0.302     0  03:01      1.98    0.07    0.59
  C7                   CONDUIT     0.187     0  03:01      1.43    0.05    0.57
  C14                  CONDUIT     0.271     0  02:45      2.08    0.02    0.09
  C5                   CONDUIT     0.071     0  03:01      1.38    1.21    1.00
  C8                   CONDUIT     0.126     0  03:01      1.74    1.58    0.85
  C15                  CONDUIT     0.486     0  03:01      3.42    1.55    0.83
  C21                  CONDUIT     0.202     0  03:01      1.82    1.16    0.69
  V4                   ORIFICE     0.028     0  04:52                      0.35
  V5                   ORIFICE     0.039     0  03:02                      1.00
  V1                   ORIFICE     0.271     0  02:43                      1.00
  V6                   ORIFICE     0.075     0  02:46                      0.43
  V3                   ORIFICE     0.120     0  07:14                      0.65
  V2                   ORIFICE     0.033     0  05:50                      0.24
  
  
  ***************************
  Flow Classification Summary
  ***************************
  
  -------------------------------------------------------------------------------------
                      Adjusted    ---------- Fraction of Time in Flow Class ---------- 
                       /Actual         Up    Down  Sub   Sup   Up    Down  Norm  Inlet 
  Conduit               Length    Dry  Dry   Dry   Crit  Crit  Crit  Crit  Ltd   Ctrl  
  -------------------------------------------------------------------------------------
  C1                      1.00   0.00  0.00  0.00  0.02  0.98  0.00  0.00  0.94  0.00
  C6                      1.00   0.00  0.00  0.00  0.11  0.89  0.00  0.00  0.00  0.00
  C2                      1.00   0.00  0.00  0.00  0.19  0.81  0.00  0.00  0.95  0.00
  C9                      1.00   0.00  0.00  0.00  1.00  0.00  0.00  0.00  1.00  0.00
  C16                     1.00   0.00  0.00  0.00  0.55  0.45  0.00  0.00  0.42  0.00
  C3                      1.00   0.00  0.00  0.00  0.05  0.95  0.00  0.00  0.71  0.00
  C19                     1.00   0.00  0.00  0.00  1.00  0.00  0.00  0.00  1.00  0.00
  C11                     1.00   0.00  0.00  0.00  0.34  0.66  0.00  0.00  1.00  0.00
  C20                     1.00   0.00  0.00  0.00  0.52  0.48  0.00  0.00  0.98  0.00
  C22                     1.00   0.00  0.00  0.00  0.73  0.27  0.00  0.00  1.00  0.00
  C12                     1.00   0.00  0.00  0.00  1.00  0.00  0.00  0.00  1.00  0.00
  C17                     1.00   0.00  0.00  0.00  0.57  0.43  0.00  0.00  0.95  0.00
  C10                     1.00   0.00  0.00  0.00  0.96  0.04  0.00  0.00  0.97  0.00
  C13                     1.00   0.00  0.00  0.00  0.87  0.13  0.00  0.00  0.33  0.00
  C18                     1.00   0.00  0.00  0.00  0.94  0.06  0.00  0.00  0.97  0.00
  C23                     1.00   0.00  0.00  0.00  0.84  0.16  0.00  0.00  0.94  0.00
  C4                      1.00   0.00  0.00  0.00  0.96  0.04  0.00  0.00  0.98  0.00
  C7                      1.00   0.00  0.00  0.00  0.94  0.06  0.00  0.00  0.97  0.00
  C14                     1.00   0.00  0.00  0.00  0.00  0.99  0.00  0.00  0.28  0.00
  C5                      1.00   0.00  0.00  0.00  0.90  0.10  0.00  0.00  0.89  0.00
  C8                      1.00   0.00  0.00  0.00  0.15  0.85  0.00  0.00  0.00  0.00
  C15                     1.00   0.00  0.00  0.00  0.00  1.00  0.00  0.00  0.00  0.00
  C21                     1.00   0.00  0.00  0.00  0.00  1.00  0.00  0.00  0.00  0.00
  
  
  *************************
  Conduit Surcharge Summary
  *************************
  
  ----------------------------------------------------------------------------
                                                           Hours        Hours 
                         --------- Hours Full --------   Above Full   Capacity
  Conduit                Both Ends  Upstream  Dnstream   Normal Flow   Limited
  ----------------------------------------------------------------------------
  C6                          0.01      0.59      0.01      0.49         0.01
  C10                         0.01      0.01      5.84      0.01         0.01
  C13                         0.01      0.01      5.30      0.01         0.01
  C18                         0.01      0.01      5.41      0.01         0.01
  C23                         0.01      0.01      5.91      0.01         0.01
  C4                          0.01      0.01      6.05      0.01         0.01
  C7                          0.01      0.01      5.76      0.01         0.01
  C5                          0.63      0.63      0.78      0.75         0.60
  C8                          0.01      0.70      0.01      0.73         0.01
  C15                         0.01      0.60      0.01      0.73         0.01
  C21                         0.01      0.22      0.01      0.24         0.01
  

  Analysis begun on:  Fri Sep  3 18:56:32 2021
  Analysis ended on:  Fri Sep  3 18:56:33 2021
  Total elapsed time: 00:00:01