
  EPA STORM WATER MANAGEMENT MODEL - VERSION 5.1 (Build 5.3.0.dev0)
  --------------------------------------------------------------

  
  *********************************************************
  NOTE: The summary statistics displayed in this report are
  based on results found at every computational time step,  
  not just on results from each reporting time step.
  *********************************************************
  
  ****************
  Analysis Options
  ****************
  Flow Units ............... CMS
  Process Models:
    Rainfall/Runoff ........ YES
    RDII ................... NO
    Snowmelt ............... NO
    Groundwater ............ NO
    Flow Routing ........... YES
    Ponding Allowed ........ YES
    Water Quality .......... NO
  Infiltration Method ...... HORTON
  Flow Routing Method ...... DYNWAVE
  Surcharge Method ......... EXTRAN
  Starting Date ............ 08/28/2015 08:00:00
  Ending Date .............. 08/28/2015 15:50:00
  Antecedent Dry Days ...... 0.0
  Report Time Step ......... 00:01:00
  Wet Time Step ............ 00:01:00
  Dry Time Step ............ 00:01:00
  Routing Time Step ........ 5.00 sec
  Variable Time Step ....... YES
  Maximum Trials ........... 8
  Number of Threads ........ 1
  Head Tolerance ........... 0.001500 m
  
  
  **************************        Volume         Depth
  Runoff Quantity Continuity     hectare-m            mm
  **************************     ---------       -------
  Total Precipitation ......         1.480         8.215
  Evaporation Loss .........         0.000         0.000
  Infiltration Loss ........         0.000         0.000
  Surface Runoff ...........         1.457         8.084
  Final Storage ............         0.024         0.131
  Continuity Error (%) .....        -0.007
  
  
  **************************        Volume        Volume
  Flow Routing Continuity        hectare-m      10^6 ltr
  **************************     ---------     ---------
  Dry Weather Inflow .......         0.396         3.955
  Wet Weather Inflow .......         1.457        14.567
  Groundwater Inflow .......         0.000         0.000
  RDII Inflow ..............         0.000         0.000
  External Inflow ..........         0.000         0.000
  External Outflow .........         0.535         5.348
  Flooding Loss ............         0.294         2.943
  Evaporation Loss .........         0.000         0.000
  Exfiltration Loss ........         0.000         0.000
  Initial Stored Volume ....         0.000         0.000
  Final Stored Volume ......         0.779         7.795
  Continuity Error (%) .....        13.156
  
  
  *************************
  Highest Continuity Errors
  *************************
  Node T2 (40.83%)
  Node T4 (24.57%)
  Node T3 (23.69%)
  Node T5 (21.94%)
  Node T6 (17.51%)
  
  
  ***************************
  Time-Step Critical Elements
  ***************************
  None
  
  
  ********************************
  Highest Flow Instability Indexes
  ********************************
  Link C13 (2)
  
  
  *************************
  Routing Time Step Summary
  *************************
  Minimum Time Step           :     4.50 sec
  Average Time Step           :     5.00 sec
  Maximum Time Step           :     5.00 sec
  Percent in Steady State     :     0.00
  Average Iterations per Step :     2.18
  Percent Not Converging      :     0.73
  
  
  ***************************
  Subcatchment Runoff Summary
  ***************************
  
  ------------------------------------------------------------------------------------------------------------------------------
                            Total      Total      Total      Total     Imperv       Perv      Total       Total     Peak  Runoff
                           Precip      Runon       Evap      Infil     Runoff     Runoff     Runoff      Runoff   Runoff   Coeff
  Subcatchment                 mm         mm         mm         mm         mm         mm         mm    10^6 ltr      CMS
  ------------------------------------------------------------------------------------------------------------------------------
  SC01                       8.21       0.00       0.00       0.00       8.13       0.00       8.13        2.68     0.61   0.990
  SC02                       8.21       0.00       0.00       0.00       8.12       0.00       8.12        1.85     0.42   0.989
  SC03                       8.21       0.00       0.00       0.00       8.15       0.00       8.15        1.47     0.34   0.992
  SC04                       8.21       0.00       0.00       0.00       8.02       0.00       8.02        0.55     0.11   0.976
  SC05                       8.21       0.00       0.00       0.00       8.12       0.00       8.12        1.27     0.29   0.989
  SC06                       8.21       0.00       0.00       0.00       7.97       0.00       7.97        2.59     0.52   0.970
  SC07                       8.21       0.00       0.00       0.00       8.02       0.00       8.02        0.38     0.08   0.976
  SC08                       8.21       0.00       0.00       0.00       8.10       0.00       8.10        2.27     0.50   0.986
  SC09                       8.21       0.00       0.00       0.00       8.07       0.00       8.07        0.56     0.12   0.983
  SC010                      8.21       0.00       0.00       0.00       8.10       0.00       8.10        0.95     0.21   0.986
  
  
  ******************
  Node Depth Summary
  ******************
  
  ---------------------------------------------------------------------------------
                                 Average  Maximum  Maximum  Time of Max    Reported
                                   Depth    Depth      HGL   Occurrence   Max Depth
  Node                 Type       Meters   Meters   Meters  days hr:min      Meters
  ---------------------------------------------------------------------------------
  J1                   JUNCTION     0.08     0.18    34.18     0  03:01        0.18
  J3                   JUNCTION     0.10     0.13    18.13     0  06:12        0.13
  CSO7                 JUNCTION     0.17     1.20    35.20     0  02:39        1.20
  J5                   JUNCTION     0.07     0.15    32.15     0  03:01        0.15
  CSO9                 JUNCTION     0.19     2.00    42.00     0  03:00        2.00
  J8                   JUNCTION     0.12     0.27    36.27     0  03:01        0.27
  CSO8                 JUNCTION     0.21     2.00    34.00     0  02:58        2.00
  J10                  JUNCTION     0.10     0.28    29.28     0  03:01        0.28
  J13                  JUNCTION     0.07     0.18    29.18     0  03:01        0.18
  J15                  JUNCTION     0.16     0.33    15.33     0  03:02        0.33
  J16                  JUNCTION     0.07     0.19    30.19     0  03:01        0.19
  CSO10                JUNCTION     0.14     1.00    31.00     0  02:57        1.00
  J12                  JUNCTION     0.44     0.81    26.81     0  07:50        0.81
  J4                   JUNCTION     0.16     1.15    34.15     0  02:39        0.76
  J6                   JUNCTION     0.06     0.07    25.07     0  04:54        0.07
  J2                   JUNCTION     0.07     0.08    25.08     0  03:50        0.08
  J19                  JUNCTION     0.14     0.17     8.17     0  02:45        0.17
  J9                   JUNCTION     0.09     0.11    29.11     0  05:06        0.11
  J14                  JUNCTION     0.09     0.15    20.15     0  07:20        0.15
  J17                  JUNCTION     0.04     0.05    20.05     0  05:39        0.05
  J7                   JUNCTION     0.09     0.23    39.23     0  03:01        0.23
  J11                  JUNCTION     0.11     0.30    31.30     0  03:01        0.30
  J18                  JUNCTION     0.06     0.16    29.16     0  03:01        0.16
  Out_to_WWTP          OUTFALL      0.14     0.17     6.17     0  03:57        0.17
  T5                   STORAGE      3.38     5.00    32.00     0  03:01        5.00
  T4                   STORAGE      3.23     4.97    31.97     0  04:52        4.97
  T6                   STORAGE      3.58     5.00    36.00     0  02:45        5.00
  T3                   STORAGE      3.16     4.81    26.81     0  07:47        4.81
  T2                   STORAGE      3.40     5.00    26.00     0  04:33        5.00
  T1                   STORAGE      3.01     5.00    15.00     0  02:43        5.00
  
  
  *******************
  Node Inflow Summary
  *******************
  
  -------------------------------------------------------------------------------------------------
                                  Maximum  Maximum                  Lateral       Total        Flow
                                  Lateral    Total  Time of Max      Inflow      Inflow     Balance
                                   Inflow   Inflow   Occurrence      Volume      Volume       Error
  Node                 Type           CMS      CMS  days hr:min    10^6 ltr    10^6 ltr     Percent
  -------------------------------------------------------------------------------------------------
  J1                   JUNCTION     0.308    0.308     0  03:01        1.83        1.83       0.019
  J3                   JUNCTION     0.000    0.183     0  06:10           0        2.82       1.020
  CSO7                 JUNCTION     0.090    0.090     0  03:01       0.671       0.671       0.069
  J5                   JUNCTION     0.119    0.190     0  03:01       0.681        1.34       0.113
  CSO9                 JUNCTION     0.127    0.127     0  03:01       0.753       0.753       0.068
  J8                   JUNCTION     0.555    0.677     0  03:01        3.53        4.28       0.117
  CSO8                 JUNCTION     0.506    0.506     0  03:01        2.56        2.56       0.025
  J10                  JUNCTION     0.359    0.843     0  03:01        1.85         4.4       0.055
  J13                  JUNCTION     0.435    0.435     0  03:01        2.32        2.32      -0.170
  J15                  JUNCTION     0.000    0.990     0  03:01           0        7.44       0.846
  J16                  JUNCTION     0.632    0.632     0  03:01        3.24        3.24      -0.009
  CSO10                JUNCTION     0.215    0.215     0  03:01        1.09        1.09       0.035
  J12                  JUNCTION     0.000    0.871     0  03:01           0        6.25      11.044
  J4                   JUNCTION     0.000    0.071     0  03:01           0       0.659       0.522
  J6                   JUNCTION     0.000    0.028     0  04:52           0       0.559       0.700
  J2                   JUNCTION     0.000    0.039     0  03:01           0       0.837       0.608
  J19                  JUNCTION     0.000    0.271     0  02:43           0        5.36       0.187
  J9                   JUNCTION     0.000    0.075     0  02:45           0        1.51       1.171
  J14                  JUNCTION     0.000    0.121     0  07:20           0        1.44       0.298
  J17                  JUNCTION     0.000    0.015     0  04:34           0       0.321       1.280
  J7                   JUNCTION     0.000    0.126     0  03:01           0       0.753       0.418
  J11                  JUNCTION     0.000    0.486     0  03:01           0        2.56       0.243
  J18                  JUNCTION     0.000    0.202     0  03:01           0        1.09       0.081
  Out_to_WWTP          OUTFALL      0.000    0.271     0  02:45           0        5.35       0.000
  T5                   STORAGE      0.000    0.305     0  03:01           0        1.83      28.107
  T4                   STORAGE      0.000    0.188     0  03:01           0        1.33      32.565
  T6                   STORAGE      0.000    0.667     0  03:01           0        4.28      21.221
  T3                   STORAGE      0.000    0.857     0  03:02           0        5.63      31.051
  T2                   STORAGE      0.000    0.431     0  03:01           0        2.32      69.018
  T1                   STORAGE      0.000    0.952     0  03:02           0        7.37       6.595
  
  
  **********************
  Node Surcharge Summary
  **********************
  
  Surcharging occurs when water rises above the top of the highest conduit.
  ---------------------------------------------------------------------
                                               Max. Height   Min. Depth
                                   Hours       Above Crown    Below Rim
  Node                 Type      Surcharged         Meters       Meters
  ---------------------------------------------------------------------
  CSO7                 JUNCTION        0.65          0.945        0.000
  CSO9                 JUNCTION        0.72          1.682        0.000
  CSO8                 JUNCTION        0.62          1.547        0.000
  CSO10                JUNCTION        0.24          0.560        0.000
  J4                   JUNCTION        0.61          0.845        0.855
  
  
  *********************
  Node Flooding Summary
  *********************
  
  Flooding refers to all water that overflows a node, whether it ponds or not.
  --------------------------------------------------------------------------
                                                             Total   Maximum
                                 Maximum   Time of Max       Flood    Ponded
                        Hours       Rate    Occurrence      Volume     Depth
  Node                 Flooded       CMS   days hr:min    10^6 ltr    Meters
  --------------------------------------------------------------------------
  CSO7                    0.40     0.019      0  03:01       0.012     0.000
  CSO9                    0.01     0.001      0  03:01       0.000     0.000
  CSO8                    0.05     0.020      0  03:01       0.002     0.000
  CSO10                   0.07     0.012      0  03:01       0.002     0.000
  T5                      0.92     0.262      0  03:01       0.188     0.000
  T6                      2.63     0.631      0  03:01       1.494     0.000
  T2                      2.47     0.015      0  04:33       0.054     0.000
  T1                      1.11     0.682      0  03:02       1.191     0.000
  
  
  **********************
  Storage Volume Summary
  **********************
  
  --------------------------------------------------------------------------------------------------
                         Average     Avg  Evap Exfil       Maximum     Max    Time of Max    Maximum
                          Volume    Pcnt  Pcnt  Pcnt        Volume    Pcnt     Occurrence    Outflow
  Storage Unit           1000 m3    Full  Loss  Loss       1000 m3    Full    days hr:min        CMS
  --------------------------------------------------------------------------------------------------
  T5                       0.338      68     0     0         0.500     100       0  03:01      0.039
  T4                       0.323      65     0     0         0.497      99       0  04:52      0.028
  T6                       0.429      72     0     0         0.600     100       0  02:45      0.075
  T3                       1.643      63     0     0         2.502      96       0  07:47      0.222
  T2                       0.679      68     0     0         1.000     100       0  04:33      0.015
  T1                       0.422      60     0     0         0.700     100       0  02:43      0.271
  
  
  ***********************
  Outfall Loading Summary
  ***********************
  
  -----------------------------------------------------------
                         Flow       Avg       Max       Total
                         Freq      Flow      Flow      Volume
  Outfall Node           Pcnt       CMS       CMS    10^6 ltr
  -----------------------------------------------------------
  Out_to_WWTP           99.01     0.192     0.271       5.348
  -----------------------------------------------------------
  System                99.01     0.192     0.271       5.348
  
  
  ********************
  Link Flow Summary
  ********************
  
  -----------------------------------------------------------------------------
                                 Maximum  Time of Max   Maximum    Max/    Max/
                                  |Flow|   Occurrence   |Veloc|    Full    Full
  Link                 Type          CMS  days hr:min     m/sec    Flow   Depth
  -----------------------------------------------------------------------------
  C1                   CONDUIT     0.039     0  03:49      1.05    0.01    0.10
  C6                   CONDUIT     0.071     0  03:01      1.29    1.13    0.74
  C2                   CONDUIT     0.028     0  04:54      1.01    0.03    0.17
  C9                   CONDUIT     0.122     0  03:01      1.27    0.42    0.49
  C16                  CONDUIT     0.485     0  03:01      1.76    0.05    0.14
  C3                   CONDUIT     0.118     0  07:20      1.81    0.05    0.14
  C19                  CONDUIT     0.015     0  05:39      0.40    0.01    0.19
  C11                  CONDUIT     0.176     0  06:12      1.76    0.01    0.11
  C20                  CONDUIT     0.626     0  03:01      2.60    0.02    0.13
  C22                  CONDUIT     0.202     0  03:01      1.57    0.09    0.31
  C12                  CONDUIT     0.075     0  05:06      0.59    0.01    0.23
  C17                  CONDUIT     0.830     0  03:01      2.94    0.04    0.21
  C10                  CONDUIT     0.667     0  03:01      1.66    0.07    0.59
  C13                  CONDUIT     0.857     0  03:02      1.45    0.05    0.70
  C18                  CONDUIT     0.431     0  03:01      1.72    0.02    0.54
  C23                  CONDUIT     0.952     0  03:02      1.24    0.11    0.61
  C4                   CONDUIT     0.305     0  03:01      1.98    0.07    0.59
  C7                   CONDUIT     0.188     0  03:01      1.43    0.05    0.57
  C14                  CONDUIT     0.271     0  02:45      2.08    0.02    0.09
  C5                   CONDUIT     0.071     0  03:01      1.38    1.21    1.00
  C8                   CONDUIT     0.126     0  03:01      1.75    1.59    0.85
  C15                  CONDUIT     0.486     0  03:01      3.42    1.55    0.83
  C21                  CONDUIT     0.202     0  03:01      1.82    1.16    0.69
  V4                   ORIFICE     0.028     0  04:52                      0.35
  V5                   ORIFICE     0.039     0  03:01                      1.00
  V1                   ORIFICE     0.271     0  02:43                      1.00
  V6                   ORIFICE     0.075     0  02:45                      0.43
  V3                   ORIFICE     0.121     0  07:20                      0.65
  V2                   ORIFICE     0.015     0  04:34                      0.24
  
  
  ***************************
  Flow Classification Summary
  ***************************
  
  -------------------------------------------------------------------------------------
                      Adjusted    ---------- Fraction of Time in Flow Class ---------- 
                       /Actual         Up    Down  Sub   Sup   Up    Down  Norm  Inlet 
  Conduit               Length    Dry  Dry   Dry   Crit  Crit  Crit  Crit  Ltd   Ctrl  
  -------------------------------------------------------------------------------------
  C1                      1.00   0.00  0.00  0.00  0.00  1.00  0.00  0.00  0.94  0.00
  C6                      1.00   0.00  0.00  0.00  0.11  0.89  0.00  0.00  0.00  0.00
  C2                      1.00   0.00  0.00  0.00  0.09  0.91  0.00  0.00  0.95  0.00
  C9                      1.00   0.00  0.00  0.00  1.00  0.00  0.00  0.00  1.00  0.00
  C16                     1.00   0.00  0.00  0.00  0.55  0.45  0.00  0.00  0.41  0.00
  C3                      1.00   0.00  0.00  0.00  0.05  0.95  0.00  0.00  0.79  0.00
  C19                     1.00   0.00  0.00  0.00  1.00  0.00  0.00  0.00  1.00  0.00
  C11                     1.00   0.00  0.00  0.00  0.34  0.66  0.00  0.00  1.00  0.00
  C20                     1.00   0.00  0.00  0.00  0.53  0.47  0.00  0.00  0.98  0.00
  C22                     1.00   0.00  0.00  0.00  0.72  0.28  0.00  0.00  1.00  0.00
  C12                     1.00   0.00  0.00  0.00  1.00  0.00  0.00  0.00  1.00  0.00
  C17                     1.00   0.00  0.00  0.00  0.57  0.43  0.00  0.00  0.94  0.00
  C10                     1.00   0.00  0.00  0.00  0.96  0.04  0.00  0.00  0.97  0.00
  C13                     1.00   0.00  0.00  0.00  0.86  0.14  0.00  0.00  0.32  0.00
  C18                     1.00   0.00  0.00  0.00  0.94  0.06  0.00  0.00  0.97  0.00
  C23                     1.00   0.00  0.00  0.00  0.87  0.13  0.00  0.00  0.94  0.00
  C4                      1.00   0.00  0.00  0.00  0.96  0.04  0.00  0.00  0.98  0.00
  C7                      1.00   0.00  0.00  0.00  0.94  0.06  0.00  0.00  0.97  0.00
  C14                     1.00   0.00  0.00  0.00  0.00  0.99  0.00  0.00  0.32  0.00
  C5                      1.00   0.00  0.00  0.00  0.90  0.10  0.00  0.00  0.89  0.00
  C8                      1.00   0.00  0.00  0.00  0.15  0.85  0.00  0.00  0.00  0.00
  C15                     1.00   0.00  0.00  0.00  0.00  1.00  0.00  0.00  0.00  0.00
  C21                     1.00   0.00  0.00  0.00  0.00  1.00  0.00  0.00  0.00  0.00
  
  
  *************************
  Conduit Surcharge Summary
  *************************
  
  ----------------------------------------------------------------------------
                                                           Hours        Hours 
                         --------- Hours Full --------   Above Full   Capacity
  Conduit                Both Ends  Upstream  Dnstream   Normal Flow   Limited
  ----------------------------------------------------------------------------
  C6                          0.01      0.61      0.01      0.51         0.01
  C10                         0.01      0.01      5.84      0.01         0.01
  C13                         0.01      0.01      5.32      0.01         0.01
  C18                         0.01      0.01      5.42      0.01         0.01
  C23                         0.01      0.01      5.91      0.01         0.01
  C4                          0.01      0.01      6.05      0.01         0.01
  C7                          0.01      0.01      5.77      0.01         0.01
  C5                          0.65      0.65      0.81      0.78         0.63
  C8                          0.01      0.72      0.01      0.76         0.01
  C15                         0.01      0.62      0.01      0.75         0.01
  C21                         0.01      0.24      0.01      0.25         0.01
  

  Analysis begun on:  Fri Sep  3 18:58:17 2021
  Analysis ended on:  Fri Sep  3 18:58:17 2021
  Total elapsed time: < 1 sec