
  EPA STORM WATER MANAGEMENT MODEL - VERSION 5.1 (Build 5.3.0.dev0)
  --------------------------------------------------------------

  
  *********************************************************
  NOTE: The summary statistics displayed in this report are
  based on results found at every computational time step,  
  not just on results from each reporting time step.
  *********************************************************
  
  ****************
  Analysis Options
  ****************
  Flow Units ............... CMS
  Process Models:
    Rainfall/Runoff ........ YES
    RDII ................... NO
    Snowmelt ............... NO
    Groundwater ............ NO
    Flow Routing ........... YES
    Ponding Allowed ........ YES
    Water Quality .......... NO
  Infiltration Method ...... HORTON
  Flow Routing Method ...... DYNWAVE
  Surcharge Method ......... EXTRAN
  Starting Date ............ 08/28/2015 08:00:00
  Ending Date .............. 08/28/2015 15:50:00
  Antecedent Dry Days ...... 0.0
  Report Time Step ......... 00:01:00
  Wet Time Step ............ 00:01:00
  Dry Time Step ............ 00:01:00
  Routing Time Step ........ 5.00 sec
  Variable Time Step ....... YES
  Maximum Trials ........... 8
  Number of Threads ........ 1
  Head Tolerance ........... 0.001500 m
  
  
  **************************        Volume         Depth
  Runoff Quantity Continuity     hectare-m            mm
  **************************     ---------       -------
  Total Precipitation ......         1.723         9.564
  Evaporation Loss .........         0.000         0.000
  Infiltration Loss ........         0.000         0.000
  Surface Runoff ...........         1.700         9.436
  Final Storage ............         0.023         0.129
  Continuity Error (%) .....        -0.011
  
  
  **************************        Volume        Volume
  Flow Routing Continuity        hectare-m      10^6 ltr
  **************************     ---------     ---------
  Dry Weather Inflow .......         0.396         3.955
  Wet Weather Inflow .......         1.700        17.003
  Groundwater Inflow .......         0.000         0.000
  RDII Inflow ..............         0.000         0.000
  External Inflow ..........         0.000         0.000
  External Outflow .........         0.632         6.319
  Flooding Loss ............         0.681         6.808
  Evaporation Loss .........         0.000         0.000
  Exfiltration Loss ........         0.000         0.000
  Initial Stored Volume ....         0.000         0.000
  Final Stored Volume ......         0.633         6.331
  Continuity Error (%) .....         7.156
  
  
  *************************
  Highest Continuity Errors
  *************************
  Node T5 (19.57%)
  Node T3 (16.75%)
  Node T2 (7.23%)
  Node T1 (6.23%)
  Node J12 (6.21%)
  
  
  ***************************
  Time-Step Critical Elements
  ***************************
  None
  
  
  ********************************
  Highest Flow Instability Indexes
  ********************************
  Link C13 (2)
  
  
  *************************
  Routing Time Step Summary
  *************************
  Minimum Time Step           :     4.50 sec
  Average Time Step           :     5.00 sec
  Maximum Time Step           :     5.00 sec
  Percent in Steady State     :     0.00
  Average Iterations per Step :     2.18
  Percent Not Converging      :     0.48
  
  
  ***************************
  Subcatchment Runoff Summary
  ***************************
  
  ------------------------------------------------------------------------------------------------------------------------------
                            Total      Total      Total      Total     Imperv       Perv      Total       Total     Peak  Runoff
                           Precip      Runon       Evap      Infil     Runoff     Runoff     Runoff      Runoff   Runoff   Coeff
  Subcatchment                 mm         mm         mm         mm         mm         mm         mm    10^6 ltr      CMS
  ------------------------------------------------------------------------------------------------------------------------------
  SC01                       9.56       0.00       0.00       0.00       9.48       0.00       9.48        3.13     0.77   0.991
  SC02                       9.56       0.00       0.00       0.00       9.47       0.00       9.47        2.16     0.52   0.991
  SC03                       9.56       0.00       0.00       0.00       9.50       0.00       9.50        1.71     0.46   0.993
  SC04                       9.56       0.00       0.00       0.00       9.37       0.00       9.37        0.65     0.12   0.980
  SC05                       9.56       0.00       0.00       0.00       9.47       0.00       9.47        1.48     0.35   0.991
  SC06                       9.56       0.00       0.00       0.00       9.32       0.00       9.32        3.03     0.51   0.975
  SC07                       9.56       0.00       0.00       0.00       9.37       0.00       9.37        0.45     0.08   0.980
  SC08                       9.56       0.00       0.00       0.00       9.45       0.00       9.45        2.65     0.58   0.988
  SC09                       9.56       0.00       0.00       0.00       9.42       0.00       9.42        0.65     0.13   0.985
  SC010                      9.56       0.00       0.00       0.00       9.45       0.00       9.45        1.11     0.25   0.988
  
  
  ******************
  Node Depth Summary
  ******************
  
  ---------------------------------------------------------------------------------
                                 Average  Maximum  Maximum  Time of Max    Reported
                                   Depth    Depth      HGL   Occurrence   Max Depth
  Node                 Type       Meters   Meters   Meters  days hr:min      Meters
  ---------------------------------------------------------------------------------
  J1                   JUNCTION     0.08     0.20    34.20     0  01:32        0.20
  J3                   JUNCTION     0.14     0.17    18.17     0  03:49        0.17
  CSO7                 JUNCTION     0.19     1.20    35.20     0  01:30        1.20
  J5                   JUNCTION     0.07     0.15    32.15     0  01:41        0.15
  CSO9                 JUNCTION     0.23     2.00    42.00     0  01:28        2.00
  J8                   JUNCTION     0.12     0.27    36.27     0  01:44        0.27
  CSO8                 JUNCTION     0.25     2.00    34.00     0  01:25        2.00
  J10                  JUNCTION     0.11     0.29    29.29     0  01:31        0.29
  J13                  JUNCTION     0.07     0.19    29.19     0  01:32        0.19
  J15                  JUNCTION     0.22     0.36    15.36     0  01:38        0.36
  J16                  JUNCTION     0.07     0.22    30.22     0  01:32        0.22
  CSO10                JUNCTION     0.17     1.00    31.00     0  01:25        1.00
  J12                  JUNCTION     0.58     0.91    26.91     0  05:10        0.91
  J4                   JUNCTION     0.17     1.44    34.44     0  01:30        0.75
  J6                   JUNCTION     0.09     0.11    25.11     0  03:28        0.11
  J2                   JUNCTION     0.07     0.08    25.08     0  03:20        0.08
  J19                  JUNCTION     0.15     0.17     8.17     0  01:49        0.17
  J9                   JUNCTION     0.13     0.16    29.16     0  03:19        0.16
  J14                  JUNCTION     0.15     0.19    20.19     0  05:58        0.19
  J17                  JUNCTION     0.11     0.14    20.14     0  03:17        0.14
  J7                   JUNCTION     0.09     0.23    39.23     0  01:48        0.23
  J11                  JUNCTION     0.11     0.30    31.30     0  01:49        0.30
  J18                  JUNCTION     0.06     0.16    29.16     0  01:49        0.16
  Out_to_WWTP          OUTFALL      0.15     0.17     6.17     0  01:48        0.17
  T5                   STORAGE      3.72     5.00    32.00     0  02:32        5.00
  T4                   STORAGE      2.00     3.74    30.74     0  03:26        3.74
  T6                   STORAGE      2.97     5.00    36.00     0  02:14        5.00
  T3                   STORAGE      3.55     4.91    26.91     0  05:14        4.91
  T2                   STORAGE      1.94     3.64    24.64     0  03:16        3.64
  T1                   STORAGE      4.02     5.00    15.00     0  01:48        5.00
  
  
  *******************
  Node Inflow Summary
  *******************
  
  -------------------------------------------------------------------------------------------------
                                  Maximum  Maximum                  Lateral       Total        Flow
                                  Lateral    Total  Time of Max      Inflow      Inflow     Balance
                                   Inflow   Inflow   Occurrence      Volume      Volume       Error
  Node                 Type           CMS      CMS  days hr:min    10^6 ltr    10^6 ltr     Percent
  -------------------------------------------------------------------------------------------------
  J1                   JUNCTION     0.371    0.371     0  01:32        2.04        2.04      -0.002
  J3                   JUNCTION     0.000    0.294     0  03:39           0        6.28       0.765
  CSO7                 JUNCTION     0.091    0.091     0  01:40       0.736       0.736       0.071
  J5                   JUNCTION     0.123    0.194     0  01:40       0.774        1.48       0.047
  CSO9                 JUNCTION     0.139    0.139     0  01:37       0.846       0.846       0.032
  J8                   JUNCTION     0.544    0.672     0  01:44        3.98        4.81       0.047
  CSO8                 JUNCTION     0.589    0.589     0  01:35        2.94        2.94       0.016
  J10                  JUNCTION     0.471    0.954     0  01:30        2.09        4.93      -0.005
  J13                  JUNCTION     0.531    0.531     0  01:32        2.62        2.62      -0.309
  J15                  JUNCTION     0.000    1.158     0  01:34           0        13.3       0.842
  J16                  JUNCTION     0.784    0.784     0  01:32        3.68        3.68      -0.047
  CSO10                JUNCTION     0.250    0.250     0  01:34        1.25        1.25       0.020
  J12                  JUNCTION     0.000    1.021     0  01:32           0         8.4       6.621
  J4                   JUNCTION     0.000    0.080     0  01:30           0       0.712       0.440
  J6                   JUNCTION     0.000    0.069     0  03:27           0         1.3       0.361
  J2                   JUNCTION     0.000    0.039     0  02:32           0       0.891       0.591
  J19                  JUNCTION     0.000    0.271     0  01:48           0        6.33       0.200
  J9                   JUNCTION     0.000    0.175     0  02:14           0        3.49       0.528
  J14                  JUNCTION     0.000    0.188     0  05:14           0        4.11       0.242
  J17                  JUNCTION     0.000    0.120     0  03:16           0        2.24       0.441
  J7                   JUNCTION     0.000    0.127     0  01:47           0       0.837       0.379
  J11                  JUNCTION     0.000    0.486     0  01:48           0        2.84       0.234
  J18                  JUNCTION     0.000    0.202     0  01:49           0         1.2       0.027
  Out_to_WWTP          OUTFALL      0.000    0.271     0  01:50           0        6.32       0.000
  T5                   STORAGE      0.000    0.370     0  01:32           0        2.04      24.330
  T4                   STORAGE      0.000    0.194     0  01:41           0        1.48       5.949
  T6                   STORAGE      0.000    0.671     0  01:44           0        4.81       5.596
  T3                   STORAGE      0.000    1.010     0  01:36           0        7.88      20.125
  T2                   STORAGE      0.000    0.530     0  01:32           0        2.63       7.793
  T1                   STORAGE      0.000    1.146     0  01:38           0        13.2       6.644
  
  
  **********************
  Node Surcharge Summary
  **********************
  
  Surcharging occurs when water rises above the top of the highest conduit.
  ---------------------------------------------------------------------
                                               Max. Height   Min. Depth
                                   Hours       Above Crown    Below Rim
  Node                 Type      Surcharged         Meters       Meters
  ---------------------------------------------------------------------
  CSO7                 JUNCTION        0.77          0.945        0.000
  CSO9                 JUNCTION        0.74          1.682        0.000
  CSO8                 JUNCTION        0.65          1.547        0.000
  CSO10                JUNCTION        0.48          0.560        0.000
  J4                   JUNCTION        0.76          1.144        0.556
  
  
  *********************
  Node Flooding Summary
  *********************
  
  Flooding refers to all water that overflows a node, whether it ponds or not.
  --------------------------------------------------------------------------
                                                             Total   Maximum
                                 Maximum   Time of Max       Flood    Ponded
                        Hours       Rate    Occurrence      Volume     Depth
  Node                 Flooded       CMS   days hr:min    10^6 ltr    Meters
  --------------------------------------------------------------------------
  CSO7                    0.44     0.020      0  01:40       0.023     0.000
  CSO9                    0.32     0.012      0  01:36       0.009     0.000
  CSO8                    0.38     0.103      0  01:35       0.096     0.000
  CSO10                   0.40     0.048      0  01:34       0.046     0.000
  T5                      1.33     0.160      0  03:01       0.350     0.000
  T6                      1.41     0.281      0  03:01       0.905     0.000
  T1                      6.03     0.824      0  01:48       5.379     0.000
  
  
  **********************
  Storage Volume Summary
  **********************
  
  --------------------------------------------------------------------------------------------------
                         Average     Avg  Evap Exfil       Maximum     Max    Time of Max    Maximum
                          Volume    Pcnt  Pcnt  Pcnt        Volume    Pcnt     Occurrence    Outflow
  Storage Unit           1000 m3    Full  Loss  Loss       1000 m3    Full    days hr:min        CMS
  --------------------------------------------------------------------------------------------------
  T5                       0.372      74     0     0         0.500     100       0  02:32      0.039
  T4                       0.200      40     0     0         0.374      75       0  03:26      0.069
  T6                       0.357      59     0     0         0.600     100       0  02:14      0.175
  T3                       1.848      71     0     0         2.555      98       0  05:14      0.188
  T2                       0.388      39     0     0         0.729      73       0  03:16      0.120
  T1                       0.563      80     0     0         0.700     100       0  01:48      0.271
  
  
  ***********************
  Outfall Loading Summary
  ***********************
  
  -----------------------------------------------------------
                         Flow       Avg       Max       Total
                         Freq      Flow      Flow      Volume
  Outfall Node           Pcnt       CMS       CMS    10^6 ltr
  -----------------------------------------------------------
  Out_to_WWTP           99.01     0.226     0.271       6.319
  -----------------------------------------------------------
  System                99.01     0.226     0.271       6.319
  
  
  ********************
  Link Flow Summary
  ********************
  
  -----------------------------------------------------------------------------
                                 Maximum  Time of Max   Maximum    Max/    Max/
                                  |Flow|   Occurrence   |Veloc|    Full    Full
  Link                 Type          CMS  days hr:min     m/sec    Flow   Depth
  -----------------------------------------------------------------------------
  C1                   CONDUIT     0.039     0  03:20      0.91    0.01    0.12
  C6                   CONDUIT     0.071     0  01:41      1.27    1.13    0.75
  C2                   CONDUIT     0.069     0  03:28      1.36    0.08    0.23
  C9                   CONDUIT     0.127     0  01:48      1.32    0.43    0.50
  C16                  CONDUIT     0.486     0  01:34      1.78    0.05    0.15
  C3                   CONDUIT     0.188     0  05:15      2.06    0.07    0.18
  C19                  CONDUIT     0.119     0  03:17      1.14    0.04    0.24
  C11                  CONDUIT     0.293     0  03:49      1.85    0.01    0.12
  C20                  CONDUIT     0.784     0  01:32      2.99    0.02    0.14
  C22                  CONDUIT     0.202     0  01:49      1.56    0.09    0.33
  C12                  CONDUIT     0.175     0  03:19      1.01    0.01    0.27
  C17                  CONDUIT     0.948     0  01:32      3.12    0.05    0.24
  C10                  CONDUIT     0.671     0  01:44      1.66    0.07    0.59
  C13                  CONDUIT     1.010     0  01:36      1.77    0.06    0.73
  C18                  CONDUIT     0.530     0  01:32      1.72    0.02    0.54
  C23                  CONDUIT     1.146     0  01:38      1.26    0.13    0.62
  C4                   CONDUIT     0.370     0  01:32      1.98    0.09    0.60
  C7                   CONDUIT     0.194     0  01:41      1.43    0.05    0.57
  C14                  CONDUIT     0.271     0  01:50      2.08    0.02    0.09
  C5                   CONDUIT     0.080     0  01:30      1.57    1.37    1.00
  C8                   CONDUIT     0.127     0  01:47      1.77    1.60    0.86
  C15                  CONDUIT     0.486     0  01:48      3.46    1.55    0.83
  C21                  CONDUIT     0.202     0  01:49      1.84    1.16    0.69
  V4                   ORIFICE     0.069     0  03:27                      1.00
  V5                   ORIFICE     0.039     0  02:32                      1.00
  V1                   ORIFICE     0.271     0  01:48                      1.00
  V6                   ORIFICE     0.175     0  02:14                      1.00
  V3                   ORIFICE     0.188     0  05:14                      1.00
  V2                   ORIFICE     0.120     0  03:16                      1.00
  
  
  ***************************
  Flow Classification Summary
  ***************************
  
  -------------------------------------------------------------------------------------
                      Adjusted    ---------- Fraction of Time in Flow Class ---------- 
                       /Actual         Up    Down  Sub   Sup   Up    Down  Norm  Inlet 
  Conduit               Length    Dry  Dry   Dry   Crit  Crit  Crit  Crit  Ltd   Ctrl  
  -------------------------------------------------------------------------------------
  C1                      1.00   0.00  0.00  0.00  0.92  0.08  0.00  0.00  0.95  0.00
  C6                      1.00   0.00  0.00  0.00  0.14  0.86  0.00  0.00  0.00  0.00
  C2                      1.00   0.00  0.00  0.00  0.03  0.97  0.00  0.00  0.94  0.00
  C9                      1.00   0.00  0.00  0.00  1.00  0.00  0.00  0.00  1.00  0.00
  C16                     1.00   0.00  0.00  0.00  0.56  0.44  0.00  0.00  0.45  0.00
  C3                      1.00   0.00  0.00  0.00  0.05  0.94  0.00  0.00  0.07  0.00
  C19                     1.00   0.00  0.00  0.00  0.86  0.14  0.00  0.00  1.00  0.00
  C11                     1.00   0.00  0.00  0.00  0.19  0.80  0.00  0.00  1.00  0.00
  C20                     1.00   0.00  0.00  0.00  0.63  0.37  0.00  0.00  0.98  0.00
  C22                     1.00   0.00  0.00  0.00  0.88  0.12  0.00  0.00  1.00  0.00
  C12                     1.00   0.00  0.00  0.00  0.94  0.06  0.00  0.00  1.00  0.00
  C17                     1.00   0.00  0.00  0.00  0.61  0.39  0.00  0.00  0.93  0.00
  C10                     1.00   0.00  0.00  0.00  0.94  0.06  0.00  0.00  0.97  0.00
  C13                     1.00   0.00  0.00  0.00  0.83  0.17  0.00  0.00  0.27  0.00
  C18                     1.00   0.00  0.00  0.00  0.83  0.17  0.00  0.00  0.97  0.00
  C23                     1.00   0.00  0.00  0.00  0.90  0.10  0.00  0.00  0.94  0.00
  C4                      1.00   0.00  0.00  0.00  0.96  0.04  0.00  0.00  0.98  0.00
  C7                      1.00   0.00  0.00  0.00  0.90  0.10  0.00  0.00  0.96  0.00
  C14                     1.00   0.00  0.00  0.00  0.00  0.99  0.00  0.00  0.00  0.00
  C5                      1.00   0.00  0.00  0.00  0.92  0.08  0.00  0.00  0.85  0.00
  C8                      1.00   0.00  0.00  0.00  0.21  0.79  0.00  0.00  0.00  0.00
  C15                     1.00   0.00  0.00  0.00  0.00  1.00  0.00  0.00  0.00  0.00
  C21                     1.00   0.00  0.00  0.00  0.01  0.99  0.00  0.00  0.00  0.00
  
  
  *************************
  Conduit Surcharge Summary
  *************************
  
  ----------------------------------------------------------------------------
                                                           Hours        Hours 
                         --------- Hours Full --------   Above Full   Capacity
  Conduit                Both Ends  Upstream  Dnstream   Normal Flow   Limited
  ----------------------------------------------------------------------------
  C6                          0.01      0.76      0.01      0.56         0.01
  C10                         0.01      0.01      6.02      0.01         0.01
  C13                         0.01      0.01      5.98      0.01         0.01
  C18                         0.01      0.01      4.00      0.01         0.01
  C23                         0.01      0.01      6.35      0.01         0.01
  C4                          0.01      0.01      6.39      0.01         0.01
  C7                          0.01      0.01      6.17      0.01         0.01
  C5                          0.74      0.77      0.97      0.86         0.67
  C8                          0.01      0.74      0.01      0.74         0.01
  C15                         0.01      0.65      0.01      0.73         0.01
  C21                         0.01      0.48      0.01      0.47         0.01
  

  Analysis begun on:  Fri Sep  3 16:37:30 2021
  Analysis ended on:  Fri Sep  3 16:37:31 2021
  Total elapsed time: 00:00:01