
  EPA STORM WATER MANAGEMENT MODEL - VERSION 5.1 (Build 5.3.0.dev0)
  --------------------------------------------------------------

  
  *********************************************************
  NOTE: The summary statistics displayed in this report are
  based on results found at every computational time step,  
  not just on results from each reporting time step.
  *********************************************************
  
  ****************
  Analysis Options
  ****************
  Flow Units ............... CMS
  Process Models:
    Rainfall/Runoff ........ YES
    RDII ................... NO
    Snowmelt ............... NO
    Groundwater ............ NO
    Flow Routing ........... YES
    Ponding Allowed ........ YES
    Water Quality .......... NO
  Infiltration Method ...... HORTON
  Flow Routing Method ...... DYNWAVE
  Surcharge Method ......... EXTRAN
  Starting Date ............ 08/28/2015 08:00:00
  Ending Date .............. 08/28/2015 15:50:00
  Antecedent Dry Days ...... 0.0
  Report Time Step ......... 00:01:00
  Wet Time Step ............ 00:01:00
  Dry Time Step ............ 00:01:00
  Routing Time Step ........ 5.00 sec
  Variable Time Step ....... YES
  Maximum Trials ........... 8
  Number of Threads ........ 1
  Head Tolerance ........... 0.001500 m
  
  
  **************************        Volume         Depth
  Runoff Quantity Continuity     hectare-m            mm
  **************************     ---------       -------
  Total Precipitation ......         2.429        13.481
  Evaporation Loss .........         0.000         0.000
  Infiltration Loss ........         0.000         0.000
  Surface Runoff ...........         2.406        13.350
  Final Storage ............         0.024         0.132
  Continuity Error (%) .....        -0.006
  
  
  **************************        Volume        Volume
  Flow Routing Continuity        hectare-m      10^6 ltr
  **************************     ---------     ---------
  Dry Weather Inflow .......         0.396         3.955
  Wet Weather Inflow .......         2.406        24.057
  Groundwater Inflow .......         0.000         0.000
  RDII Inflow ..............         0.000         0.000
  External Inflow ..........         0.000         0.000
  External Outflow .........         0.617         6.166
  Flooding Loss ............         1.347        13.469
  Evaporation Loss .........         0.000         0.000
  Exfiltration Loss ........         0.000         0.000
  Initial Stored Volume ....         0.000         0.000
  Final Stored Volume ......         0.683         6.826
  Continuity Error (%) .....         5.536
  
  
  *************************
  Highest Continuity Errors
  *************************
  Node T5 (15.03%)
  Node T3 (15.01%)
  Node T2 (8.91%)
  Node J12 (6.69%)
  Node T4 (6.65%)
  
  
  ***************************
  Time-Step Critical Elements
  ***************************
  None
  
  
  ********************************
  Highest Flow Instability Indexes
  ********************************
  All links are stable.
  
  
  *************************
  Routing Time Step Summary
  *************************
  Minimum Time Step           :     4.50 sec
  Average Time Step           :     5.00 sec
  Maximum Time Step           :     5.00 sec
  Percent in Steady State     :     0.00
  Average Iterations per Step :     2.19
  Percent Not Converging      :     0.60
  
  
  ***************************
  Subcatchment Runoff Summary
  ***************************
  
  ------------------------------------------------------------------------------------------------------------------------------
                            Total      Total      Total      Total     Imperv       Perv      Total       Total     Peak  Runoff
                           Precip      Runon       Evap      Infil     Runoff     Runoff     Runoff      Runoff   Runoff   Coeff
  Subcatchment                 mm         mm         mm         mm         mm         mm         mm    10^6 ltr      CMS
  ------------------------------------------------------------------------------------------------------------------------------
  SC01                      13.48       0.00       0.00       0.00      13.40       0.00      13.40        4.42     1.12   0.994
  SC02                      13.48       0.00       0.00       0.00      13.39       0.00      13.39        3.05     0.76   0.993
  SC03                      13.48       0.00       0.00       0.00      13.41       0.00      13.41        2.41     0.64   0.995
  SC04                      13.48       0.00       0.00       0.00      13.29       0.00      13.29        0.92     0.20   0.985
  SC05                      13.48       0.00       0.00       0.00      13.39       0.00      13.39        2.09     0.52   0.993
  SC06                      13.48       0.00       0.00       0.00      13.23       0.00      13.23        4.31     0.89   0.981
  SC07                      13.48       0.00       0.00       0.00      13.29       0.00      13.29        0.63     0.14   0.986
  SC08                      13.48       0.00       0.00       0.00      13.36       0.00      13.36        3.74     0.89   0.991
  SC09                      13.48       0.00       0.00       0.00      13.34       0.00      13.34        0.92     0.21   0.989
  SC010                     13.48       0.00       0.00       0.00      13.37       0.00      13.37        1.57     0.38   0.992
  
  
  ******************
  Node Depth Summary
  ******************
  
  ---------------------------------------------------------------------------------
                                 Average  Maximum  Maximum  Time of Max    Reported
                                   Depth    Depth      HGL   Occurrence   Max Depth
  Node                 Type       Meters   Meters   Meters  days hr:min      Meters
  ---------------------------------------------------------------------------------
  J1                   JUNCTION     0.09     0.24    34.24     0  02:21        0.24
  J3                   JUNCTION     0.14     0.17    18.17     0  03:25        0.17
  CSO7                 JUNCTION     0.27     1.20    35.20     0  01:57        1.20
  J5                   JUNCTION     0.07     0.18    32.18     0  02:24        0.18
  CSO9                 JUNCTION     0.38     2.00    42.00     0  02:03        2.00
  J8                   JUNCTION     0.13     0.33    36.33     0  02:26        0.33
  CSO8                 JUNCTION     0.40     2.00    34.00     0  02:00        2.00
  J10                  JUNCTION     0.11     0.32    29.32     0  02:20        0.32
  J13                  JUNCTION     0.08     0.23    29.23     0  02:21        0.23
  J15                  JUNCTION     0.23     0.43    15.43     0  02:24        0.43
  J16                  JUNCTION     0.08     0.26    30.26     0  02:20        0.26
  CSO10                JUNCTION     0.23     1.00    31.00     0  01:59        1.00
  J12                  JUNCTION     0.69     1.09    27.09     0  03:03        1.09
  J4                   JUNCTION     0.21     1.22    34.22     0  01:57        0.76
  J6                   JUNCTION     0.09     0.12    25.12     0  03:30        0.12
  J2                   JUNCTION     0.07     0.08    25.08     0  03:13        0.08
  J19                  JUNCTION     0.15     0.17     8.17     0  02:08        0.17
  J9                   JUNCTION     0.13     0.16    29.16     0  03:37        0.16
  J14                  JUNCTION     0.15     0.19    20.19     0  06:15        0.19
  J17                  JUNCTION     0.11     0.15    20.15     0  03:16        0.15
  J7                   JUNCTION     0.10     0.23    39.23     0  02:58        0.23
  J11                  JUNCTION     0.12     0.30    31.30     0  02:58        0.30
  J18                  JUNCTION     0.06     0.16    29.16     0  02:37        0.16
  Out_to_WWTP          OUTFALL      0.15     0.17     6.17     0  02:07        0.17
  T5                   STORAGE      3.59     5.00    32.00     0  02:22        5.00
  T4                   STORAGE      2.59     5.00    32.00     0  03:06        5.00
  T6                   STORAGE      2.89     5.00    36.00     0  02:21        5.00
  T3                   STORAGE      3.58     5.00    27.00     0  02:59        5.00
  T2                   STORAGE      2.58     5.00    26.00     0  02:45        5.00
  T1                   STORAGE      3.88     5.00    15.00     0  02:07        5.00
  
  
  *******************
  Node Inflow Summary
  *******************
  
  -------------------------------------------------------------------------------------------------
                                  Maximum  Maximum                  Lateral       Total        Flow
                                  Lateral    Total  Time of Max      Inflow      Inflow     Balance
                                   Inflow   Inflow   Occurrence      Volume      Volume       Error
  Node                 Type           CMS      CMS  days hr:min    10^6 ltr    10^6 ltr     Percent
  -------------------------------------------------------------------------------------------------
  J1                   JUNCTION     0.541    0.541     0  02:21        2.65        2.65       0.008
  J3                   JUNCTION     0.000    0.309     0  03:19           0        6.38       0.773
  CSO7                 JUNCTION     0.148    0.148     0  02:24       0.922       0.922       0.053
  J5                   JUNCTION     0.204    0.276     0  02:24        1.04        1.78       0.056
  CSO9                 JUNCTION     0.219    0.219     0  02:22        1.12        1.12       0.042
  J8                   JUNCTION     0.927    1.054     0  02:25        5.25        6.21       0.055
  CSO8                 JUNCTION     0.903    0.903     0  02:22        4.03        4.03       0.011
  J10                  JUNCTION     0.653    1.139     0  02:19         2.8        6.13      -0.047
  J13                  JUNCTION     0.777    0.777     0  02:20        3.51        3.51      -0.178
  J15                  JUNCTION     0.000    1.670     0  02:21           0        15.3       0.778
  J16                  JUNCTION     1.137    1.137     0  02:20        4.97        4.97      -0.033
  CSO10                JUNCTION     0.382    0.382     0  02:21        1.71        1.71       0.018
  J12                  JUNCTION     0.000    1.300     0  02:21           0        9.53       7.171
  J4                   JUNCTION     0.000    0.072     0  01:57           0       0.744       0.454
  J6                   JUNCTION     0.000    0.080     0  03:06           0        1.45       0.378
  J2                   JUNCTION     0.000    0.039     0  02:22           0       0.869       0.608
  J19                  JUNCTION     0.000    0.271     0  02:07           0        6.18       0.205
  J9                   JUNCTION     0.000    0.175     0  02:21           0        3.41       0.542
  J14                  JUNCTION     0.000    0.190     0  02:59           0        4.08       0.245
  J17                  JUNCTION     0.000    0.140     0  02:45           0        2.55       0.448
  J7                   JUNCTION     0.000    0.127     0  02:58           0       0.962       0.323
  J11                  JUNCTION     0.000    0.487     0  02:57           0        3.34       0.192
  J18                  JUNCTION     0.000    0.202     0  02:37           0        1.41       0.024
  Out_to_WWTP          OUTFALL      0.000    0.271     0  02:08           0        6.17       0.000
  T5                   STORAGE      0.000    0.541     0  02:21           0        2.65      17.682
  T4                   STORAGE      0.000    0.276     0  02:24           0        1.78       7.122
  T6                   STORAGE      0.000    1.054     0  02:26           0         6.2       4.556
  T3                   STORAGE      0.000    1.449     0  03:06           0        8.89      17.664
  T2                   STORAGE      0.000    0.777     0  02:21           0        3.52       9.780
  T1                   STORAGE      0.000    1.651     0  02:24           0        15.1       5.770
  
  
  **********************
  Node Surcharge Summary
  **********************
  
  Surcharging occurs when water rises above the top of the highest conduit.
  ---------------------------------------------------------------------
                                               Max. Height   Min. Depth
                                   Hours       Above Crown    Below Rim
  Node                 Type      Surcharged         Meters       Meters
  ---------------------------------------------------------------------
  CSO7                 JUNCTION        1.35          0.945        0.000
  CSO9                 JUNCTION        1.37          1.682        0.000
  CSO8                 JUNCTION        1.35          1.547        0.000
  CSO10                JUNCTION        1.13          0.560        0.000
  J4                   JUNCTION        1.32          0.920        0.780
  
  
  *********************
  Node Flooding Summary
  *********************
  
  Flooding refers to all water that overflows a node, whether it ponds or not.
  --------------------------------------------------------------------------
                                                             Total   Maximum
                                 Maximum   Time of Max       Flood    Ponded
                        Hours       Rate    Occurrence      Volume     Depth
  Node                 Flooded       CMS   days hr:min    10^6 ltr    Meters
  --------------------------------------------------------------------------
  CSO7                    1.17     0.076      0  02:24       0.177     0.000
  CSO9                    0.92     0.092      0  02:22       0.154     0.000
  CSO8                    0.96     0.417      0  02:22       0.695     0.000
  CSO10                   0.98     0.180      0  02:21       0.302     0.000
  T5                      1.55     0.500      0  02:22       0.982     0.000
  T4                      0.41     0.091      0  03:06       0.059     0.000
  T6                      1.47     0.879      0  02:26       2.345     0.000
  T3                      1.56     1.259      0  03:06       0.969     0.000
  T2                      0.52     0.349      0  02:45       0.354     0.000
  T1                      5.72     1.381      0  02:24       7.433     0.000
  
  
  **********************
  Storage Volume Summary
  **********************
  
  --------------------------------------------------------------------------------------------------
                         Average     Avg  Evap Exfil       Maximum     Max    Time of Max    Maximum
                          Volume    Pcnt  Pcnt  Pcnt        Volume    Pcnt     Occurrence    Outflow
  Storage Unit           1000 m3    Full  Loss  Loss       1000 m3    Full    days hr:min        CMS
  --------------------------------------------------------------------------------------------------
  T5                       0.359      72     0     0         0.500     100       0  02:22      0.039
  T4                       0.259      52     0     0         0.500     100       0  03:06      0.080
  T6                       0.347      58     0     0         0.600     100       0  02:21      0.175
  T3                       1.864      72     0     0         2.600     100       0  02:59      0.207
  T2                       0.516      52     0     0         1.000     100       0  02:45      0.140
  T1                       0.544      78     0     0         0.700     100       0  02:07      0.271
  
  
  ***********************
  Outfall Loading Summary
  ***********************
  
  -----------------------------------------------------------
                         Flow       Avg       Max       Total
                         Freq      Flow      Flow      Volume
  Outfall Node           Pcnt       CMS       CMS    10^6 ltr
  -----------------------------------------------------------
  Out_to_WWTP           99.01     0.221     0.271       6.166
  -----------------------------------------------------------
  System                99.01     0.221     0.271       6.166
  
  
  ********************
  Link Flow Summary
  ********************
  
  -----------------------------------------------------------------------------
                                 Maximum  Time of Max   Maximum    Max/    Max/
                                  |Flow|   Occurrence   |Veloc|    Full    Full
  Link                 Type          CMS  days hr:min     m/sec    Flow   Depth
  -----------------------------------------------------------------------------
  C1                   CONDUIT     0.039     0  03:13      0.91    0.01    0.13
  C6                   CONDUIT     0.072     0  02:24      1.29    1.15    0.79
  C2                   CONDUIT     0.080     0  03:31      1.48    0.09    0.25
  C9                   CONDUIT     0.127     0  02:58      1.29    0.43    0.56
  C16                  CONDUIT     0.488     0  02:10      1.79    0.05    0.15
  C3                   CONDUIT     0.190     0  03:00      2.05    0.07    0.18
  C19                  CONDUIT     0.140     0  03:16      1.24    0.05    0.28
  C11                  CONDUIT     0.309     0  03:25      1.85    0.02    0.15
  C20                  CONDUIT     1.135     0  02:20      3.19    0.04    0.17
  C22                  CONDUIT     0.202     0  02:37      1.50    0.09    0.37
  C12                  CONDUIT     0.175     0  03:37      0.76    0.01    0.31
  C17                  CONDUIT     1.134     0  02:20      3.14    0.06    0.34
  C10                  CONDUIT     1.054     0  02:26      1.66    0.11    0.61
  C13                  CONDUIT     1.449     0  03:06      1.53    0.09    0.77
  C18                  CONDUIT     0.777     0  02:21      1.72    0.03    0.56
  C23                  CONDUIT     1.651     0  02:24      1.37    0.18    0.64
  C4                   CONDUIT     0.541     0  02:21      1.98    0.13    0.62
  C7                   CONDUIT     0.276     0  02:24      1.43    0.07    0.59
  C14                  CONDUIT     0.271     0  02:08      2.08    0.02    0.09
  C5                   CONDUIT     0.072     0  01:57      1.41    1.24    1.00
  C8                   CONDUIT     0.127     0  02:58      1.75    1.60    0.86
  C15                  CONDUIT     0.487     0  02:57      3.42    1.55    0.83
  C21                  CONDUIT     0.202     0  02:37      1.82    1.16    0.69
  V4                   ORIFICE     0.080     0  03:06                      1.00
  V5                   ORIFICE     0.039     0  02:22                      1.00
  V1                   ORIFICE     0.271     0  02:07                      1.00
  V6                   ORIFICE     0.175     0  02:21                      1.00
  V3                   ORIFICE     0.190     0  02:59                      1.00
  V2                   ORIFICE     0.140     0  02:45                      1.00
  
  
  ***************************
  Flow Classification Summary
  ***************************
  
  -------------------------------------------------------------------------------------
                      Adjusted    ---------- Fraction of Time in Flow Class ---------- 
                       /Actual         Up    Down  Sub   Sup   Up    Down  Norm  Inlet 
  Conduit               Length    Dry  Dry   Dry   Crit  Crit  Crit  Crit  Ltd   Ctrl  
  -------------------------------------------------------------------------------------
  C1                      1.00   0.00  0.00  0.00  0.92  0.08  0.00  0.00  0.95  0.00
  C6                      1.00   0.00  0.00  0.00  0.19  0.81  0.00  0.00  0.00  0.00
  C2                      1.00   0.00  0.00  0.00  0.01  0.99  0.00  0.00  0.94  0.00
  C9                      1.00   0.00  0.00  0.00  1.00  0.00  0.00  0.00  1.00  0.00
  C16                     1.00   0.00  0.00  0.00  0.55  0.45  0.00  0.00  0.49  0.00
  C3                      1.00   0.00  0.00  0.00  0.05  0.94  0.00  0.00  0.07  0.00
  C19                     1.00   0.00  0.00  0.00  0.61  0.39  0.00  0.00  1.00  0.00
  C11                     1.00   0.00  0.00  0.00  0.31  0.69  0.00  0.00  1.00  0.00
  C20                     1.00   0.00  0.00  0.00  0.63  0.37  0.00  0.00  0.98  0.00
  C22                     1.00   0.00  0.00  0.00  0.87  0.13  0.00  0.00  1.00  0.00
  C12                     1.00   0.00  0.00  0.00  0.94  0.06  0.00  0.00  1.00  0.00
  C17                     1.00   0.00  0.00  0.00  0.65  0.35  0.00  0.00  0.95  0.00
  C10                     1.00   0.00  0.00  0.00  0.94  0.06  0.00  0.00  0.97  0.00
  C13                     1.00   0.00  0.00  0.00  0.83  0.17  0.00  0.00  0.24  0.00
  C18                     1.00   0.00  0.00  0.00  0.83  0.17  0.00  0.00  0.97  0.00
  C23                     1.00   0.00  0.00  0.00  0.90  0.10  0.00  0.00  0.94  0.00
  C4                      1.00   0.00  0.00  0.00  0.96  0.04  0.00  0.00  0.98  0.00
  C7                      1.00   0.00  0.00  0.00  0.91  0.09  0.00  0.00  0.96  0.00
  C14                     1.00   0.00  0.00  0.00  0.00  0.99  0.00  0.00  0.00  0.00
  C5                      1.00   0.00  0.00  0.00  0.91  0.09  0.00  0.00  0.81  0.00
  C8                      1.00   0.00  0.00  0.00  0.21  0.79  0.00  0.00  0.00  0.00
  C15                     1.00   0.00  0.00  0.00  0.00  1.00  0.00  0.00  0.00  0.00
  C21                     1.00   0.00  0.00  0.00  0.00  1.00  0.00  0.00  0.00  0.00
  
  
  *************************
  Conduit Surcharge Summary
  *************************
  
  ----------------------------------------------------------------------------
                                                           Hours        Hours 
                         --------- Hours Full --------   Above Full   Capacity
  Conduit                Both Ends  Upstream  Dnstream   Normal Flow   Limited
  ----------------------------------------------------------------------------
  C6                          0.01      1.32      0.01      1.22         0.01
  C10                         0.01      0.01      5.89      0.01         0.01
  C13                         0.01      0.01      5.68      0.01         0.01
  C18                         0.01      0.01      4.88      0.01         0.01
  C23                         0.01      0.01      6.17      0.01         0.01
  C4                          0.01      0.01      6.21      0.01         0.01
  C7                          0.01      0.01      5.87      0.01         0.01
  C5                          1.34      1.35      1.44      1.40         1.31
  C8                          0.01      1.37      0.01      1.39         0.01
  C15                         0.01      1.35      0.01      1.42         0.01
  C21                         0.01      1.13      0.01      1.13         0.01
  

  Analysis begun on:  Fri Sep  3 16:37:01 2021
  Analysis ended on:  Fri Sep  3 16:37:02 2021
  Total elapsed time: 00:00:01