
  EPA STORM WATER MANAGEMENT MODEL - VERSION 5.1 (Build 5.3.0.dev0)
  --------------------------------------------------------------

  
  *********************************************************
  NOTE: The summary statistics displayed in this report are
  based on results found at every computational time step,  
  not just on results from each reporting time step.
  *********************************************************
  
  ****************
  Analysis Options
  ****************
  Flow Units ............... CMS
  Process Models:
    Rainfall/Runoff ........ YES
    RDII ................... NO
    Snowmelt ............... NO
    Groundwater ............ NO
    Flow Routing ........... YES
    Ponding Allowed ........ YES
    Water Quality .......... NO
  Infiltration Method ...... HORTON
  Flow Routing Method ...... DYNWAVE
  Surcharge Method ......... EXTRAN
  Starting Date ............ 08/28/2015 08:00:00
  Ending Date .............. 08/28/2015 15:50:00
  Antecedent Dry Days ...... 0.0
  Report Time Step ......... 00:01:00
  Wet Time Step ............ 00:01:00
  Dry Time Step ............ 00:01:00
  Routing Time Step ........ 5.00 sec
  Variable Time Step ....... YES
  Maximum Trials ........... 8
  Number of Threads ........ 1
  Head Tolerance ........... 0.001500 m
  
  
  **************************        Volume         Depth
  Runoff Quantity Continuity     hectare-m            mm
  **************************     ---------       -------
  Total Precipitation ......         2.501        13.881
  Evaporation Loss .........         0.000         0.000
  Infiltration Loss ........         0.000         0.000
  Surface Runoff ...........         2.478        13.750
  Final Storage ............         0.024         0.131
  Continuity Error (%) .....        -0.006
  
  
  **************************        Volume        Volume
  Flow Routing Continuity        hectare-m      10^6 ltr
  **************************     ---------     ---------
  Dry Weather Inflow .......         0.396         3.955
  Wet Weather Inflow .......         2.478        24.778
  Groundwater Inflow .......         0.000         0.000
  RDII Inflow ..............         0.000         0.000
  External Inflow ..........         0.000         0.000
  External Outflow .........         0.620         6.198
  Flooding Loss ............         1.418        14.176
  Evaporation Loss .........         0.000         0.000
  Exfiltration Loss ........         0.000         0.000
  Initial Stored Volume ....         0.000         0.000
  Final Stored Volume ......         0.681         6.812
  Continuity Error (%) .....         5.384
  
  
  *************************
  Highest Continuity Errors
  *************************
  Node T3 (14.76%)
  Node T5 (14.65%)
  Node T2 (8.60%)
  Node J12 (6.54%)
  Node T4 (6.48%)
  
  
  ***************************
  Time-Step Critical Elements
  ***************************
  None
  
  
  ********************************
  Highest Flow Instability Indexes
  ********************************
  All links are stable.
  
  
  *************************
  Routing Time Step Summary
  *************************
  Minimum Time Step           :     4.50 sec
  Average Time Step           :     5.00 sec
  Maximum Time Step           :     5.00 sec
  Percent in Steady State     :     0.00
  Average Iterations per Step :     2.20
  Percent Not Converging      :     0.66
  
  
  ***************************
  Subcatchment Runoff Summary
  ***************************
  
  ------------------------------------------------------------------------------------------------------------------------------
                            Total      Total      Total      Total     Imperv       Perv      Total       Total     Peak  Runoff
                           Precip      Runon       Evap      Infil     Runoff     Runoff     Runoff      Runoff   Runoff   Coeff
  Subcatchment                 mm         mm         mm         mm         mm         mm         mm    10^6 ltr      CMS
  ------------------------------------------------------------------------------------------------------------------------------
  SC01                      13.88       0.00       0.00       0.00      13.80       0.00      13.80        4.55     1.14   0.994
  SC02                      13.88       0.00       0.00       0.00      13.79       0.00      13.79        3.14     0.77   0.993
  SC03                      13.88       0.00       0.00       0.00      13.81       0.00      13.81        2.49     0.65   0.995
  SC04                      13.88       0.00       0.00       0.00      13.69       0.00      13.69        0.94     0.20   0.986
  SC05                      13.88       0.00       0.00       0.00      13.79       0.00      13.79        2.15     0.53   0.993
  SC06                      13.88       0.00       0.00       0.00      13.63       0.00      13.63        4.44     0.90   0.982
  SC07                      13.88       0.00       0.00       0.00      13.69       0.00      13.69        0.65     0.14   0.986
  SC08                      13.88       0.00       0.00       0.00      13.76       0.00      13.76        3.85     0.91   0.992
  SC09                      13.88       0.00       0.00       0.00      13.74       0.00      13.74        0.95     0.22   0.990
  SC010                     13.88       0.00       0.00       0.00      13.77       0.00      13.77        1.62     0.38   0.992
  
  
  ******************
  Node Depth Summary
  ******************
  
  ---------------------------------------------------------------------------------
                                 Average  Maximum  Maximum  Time of Max    Reported
                                   Depth    Depth      HGL   Occurrence   Max Depth
  Node                 Type       Meters   Meters   Meters  days hr:min      Meters
  ---------------------------------------------------------------------------------
  J1                   JUNCTION     0.09     0.25    34.25     0  02:13        0.25
  J3                   JUNCTION     0.14     0.17    18.17     0  03:20        0.17
  CSO7                 JUNCTION     0.28     1.20    35.20     0  01:51        1.20
  J5                   JUNCTION     0.08     0.18    32.18     0  02:17        0.18
  CSO9                 JUNCTION     0.39     2.00    42.00     0  01:55        2.00
  J8                   JUNCTION     0.13     0.34    36.34     0  02:19        0.34
  CSO8                 JUNCTION     0.41     2.00    34.00     0  01:52        2.00
  J10                  JUNCTION     0.11     0.32    29.32     0  02:13        0.32
  J13                  JUNCTION     0.08     0.24    29.24     0  02:13        0.24
  J15                  JUNCTION     0.23     0.44    15.44     0  02:17        0.44
  J16                  JUNCTION     0.08     0.26    30.26     0  02:13        0.26
  CSO10                JUNCTION     0.24     1.00    31.00     0  01:52        1.00
  J12                  JUNCTION     0.70     1.09    27.09     0  02:59        1.09
  J4                   JUNCTION     0.21     1.23    34.23     0  01:51        0.75
  J6                   JUNCTION     0.09     0.12    25.12     0  03:29        0.12
  J2                   JUNCTION     0.07     0.08    25.08     0  03:07        0.08
  J19                  JUNCTION     0.15     0.17     8.17     0  02:03        0.17
  J9                   JUNCTION     0.13     0.16    29.16     0  03:31        0.16
  J14                  JUNCTION     0.15     0.19    20.19     0  06:13        0.19
  J17                  JUNCTION     0.11     0.15    20.15     0  03:14        0.15
  J7                   JUNCTION     0.10     0.23    39.23     0  02:51        0.23
  J11                  JUNCTION     0.12     0.30    31.30     0  02:51        0.30
  J18                  JUNCTION     0.07     0.16    29.16     0  02:30        0.16
  Out_to_WWTP          OUTFALL      0.15     0.17     6.17     0  02:03        0.17
  T5                   STORAGE      3.64     5.00    32.00     0  02:16        5.00
  T4                   STORAGE      2.63     5.00    32.00     0  03:00        5.00
  T6                   STORAGE      2.92     5.00    36.00     0  02:15        5.00
  T3                   STORAGE      3.63     5.00    27.00     0  02:58        5.00
  T2                   STORAGE      2.63     5.00    26.00     0  02:39        5.00
  T1                   STORAGE      3.91     5.00    15.00     0  02:02        5.00
  
  
  *******************
  Node Inflow Summary
  *******************
  
  -------------------------------------------------------------------------------------------------
                                  Maximum  Maximum                  Lateral       Total        Flow
                                  Lateral    Total  Time of Max      Inflow      Inflow     Balance
                                   Inflow   Inflow   Occurrence      Volume      Volume       Error
  Node                 Type           CMS      CMS  days hr:min    10^6 ltr    10^6 ltr     Percent
  -------------------------------------------------------------------------------------------------
  J1                   JUNCTION     0.551    0.551     0  02:13        2.71        2.71       0.006
  J3                   JUNCTION     0.000    0.309     0  03:28           0        6.44       0.767
  CSO7                 JUNCTION     0.150    0.150     0  02:17       0.941       0.941       0.050
  J5                   JUNCTION     0.207    0.279     0  02:17        1.07        1.82       0.053
  CSO9                 JUNCTION     0.223    0.223     0  02:15        1.14        1.14       0.039
  J8                   JUNCTION     0.939    1.066     0  02:18        5.38        6.36       0.051
  CSO8                 JUNCTION     0.920    0.920     0  02:14        4.15        4.15       0.010
  J10                  JUNCTION     0.665    1.150     0  02:12        2.87        6.27      -0.045
  J13                  JUNCTION     0.792    0.792     0  02:13         3.6         3.6      -0.182
  J15                  JUNCTION     0.000    1.680     0  02:14           0        15.5       0.765
  J16                  JUNCTION     1.157    1.157     0  02:13        5.11        5.11      -0.034
  CSO10                JUNCTION     0.389    0.389     0  02:14        1.76        1.76       0.018
  J12                  JUNCTION     0.000    1.305     0  02:13           0         9.7       6.997
  J4                   JUNCTION     0.000    0.073     0  01:51           0       0.752       0.441
  J6                   JUNCTION     0.000    0.080     0  03:00           0        1.47       0.373
  J2                   JUNCTION     0.000    0.039     0  02:16           0       0.876       0.603
  J19                  JUNCTION     0.000    0.271     0  02:02           0        6.21       0.204
  J9                   JUNCTION     0.000    0.175     0  02:15           0        3.44       0.539
  J14                  JUNCTION     0.000    0.190     0  02:58           0        4.12       0.243
  J17                  JUNCTION     0.000    0.140     0  02:39           0        2.58       0.444
  J7                   JUNCTION     0.000    0.127     0  02:51           0       0.981       0.317
  J11                  JUNCTION     0.000    0.487     0  02:51           0        3.41       0.189
  J18                  JUNCTION     0.000    0.202     0  02:29           0        1.44       0.022
  Out_to_WWTP          OUTFALL      0.000    0.271     0  02:04           0         6.2       0.000
  T5                   STORAGE      0.000    0.550     0  02:13           0        2.71      17.171
  T4                   STORAGE      0.000    0.279     0  02:17           0        1.82       6.924
  T6                   STORAGE      0.000    1.065     0  02:19           0        6.35       4.378
  T3                   STORAGE      0.000    1.479     0  03:02           0        9.06      17.312
  T2                   STORAGE      0.000    0.791     0  02:13           0        3.61       9.410
  T1                   STORAGE      0.000    1.661     0  02:17           0        15.4       5.674
  
  
  **********************
  Node Surcharge Summary
  **********************
  
  Surcharging occurs when water rises above the top of the highest conduit.
  ---------------------------------------------------------------------
                                               Max. Height   Min. Depth
                                   Hours       Above Crown    Below Rim
  Node                 Type      Surcharged         Meters       Meters
  ---------------------------------------------------------------------
  CSO7                 JUNCTION        1.42          0.945        0.000
  CSO9                 JUNCTION        1.44          1.682        0.000
  CSO8                 JUNCTION        1.43          1.547        0.000
  CSO10                JUNCTION        1.23          0.560        0.000
  J4                   JUNCTION        1.39          0.933        0.767
  
  
  *********************
  Node Flooding Summary
  *********************
  
  Flooding refers to all water that overflows a node, whether it ponds or not.
  --------------------------------------------------------------------------
                                                             Total   Maximum
                                 Maximum   Time of Max       Flood    Ponded
                        Hours       Rate    Occurrence      Volume     Depth
  Node                 Flooded       CMS   days hr:min    10^6 ltr    Meters
  --------------------------------------------------------------------------
  CSO7                    1.25     0.078      0  02:17       0.188     0.000
  CSO9                    0.94     0.096      0  02:15       0.163     0.000
  CSO8                    0.98     0.434      0  02:14       0.737     0.000
  CSO10                   1.00     0.187      0  02:14       0.320     0.000
  T5                      1.63     0.504      0  02:16       1.039     0.000
  T4                      0.48     0.108      0  03:00       0.083     0.000
  T6                      1.54     0.890      0  02:19       2.476     0.000
  T3                      1.61     1.290      0  03:02       1.104     0.000
  T2                      0.61     0.347      0  02:39       0.422     0.000
  T1                      5.79     1.391      0  02:17       7.645     0.000
  
  
  **********************
  Storage Volume Summary
  **********************
  
  --------------------------------------------------------------------------------------------------
                         Average     Avg  Evap Exfil       Maximum     Max    Time of Max    Maximum
                          Volume    Pcnt  Pcnt  Pcnt        Volume    Pcnt     Occurrence    Outflow
  Storage Unit           1000 m3    Full  Loss  Loss       1000 m3    Full    days hr:min        CMS
  --------------------------------------------------------------------------------------------------
  T5                       0.364      73     0     0         0.500     100       0  02:16      0.039
  T4                       0.263      53     0     0         0.500     100       0  03:00      0.080
  T6                       0.351      58     0     0         0.600     100       0  02:15      0.175
  T3                       1.886      73     0     0         2.600     100       0  02:58      0.190
  T2                       0.526      53     0     0         1.000     100       0  02:39      0.140
  T1                       0.548      78     0     0         0.700     100       0  02:02      0.271
  
  
  ***********************
  Outfall Loading Summary
  ***********************
  
  -----------------------------------------------------------
                         Flow       Avg       Max       Total
                         Freq      Flow      Flow      Volume
  Outfall Node           Pcnt       CMS       CMS    10^6 ltr
  -----------------------------------------------------------
  Out_to_WWTP           99.01     0.222     0.271       6.198
  -----------------------------------------------------------
  System                99.01     0.222     0.271       6.198
  
  
  ********************
  Link Flow Summary
  ********************
  
  -----------------------------------------------------------------------------
                                 Maximum  Time of Max   Maximum    Max/    Max/
                                  |Flow|   Occurrence   |Veloc|    Full    Full
  Link                 Type          CMS  days hr:min     m/sec    Flow   Depth
  -----------------------------------------------------------------------------
  C1                   CONDUIT     0.039     0  03:07      0.91    0.01    0.13
  C6                   CONDUIT     0.072     0  02:17      1.29    1.15    0.80
  C2                   CONDUIT     0.080     0  03:29      1.48    0.09    0.25
  C9                   CONDUIT     0.127     0  02:52      1.30    0.43    0.57
  C16                  CONDUIT     0.488     0  02:02      1.79    0.05    0.15
  C3                   CONDUIT     0.190     0  03:01      2.05    0.07    0.18
  C19                  CONDUIT     0.140     0  03:14      1.24    0.05    0.28
  C11                  CONDUIT     0.309     0  03:20      1.85    0.02    0.15
  C20                  CONDUIT     1.156     0  02:13      3.23    0.04    0.17
  C22                  CONDUIT     0.202     0  02:29      1.51    0.09    0.37
  C12                  CONDUIT     0.175     0  03:31      0.76    0.01    0.31
  C17                  CONDUIT     1.146     0  02:13      3.16    0.06    0.34
  C10                  CONDUIT     1.065     0  02:19      1.66    0.11    0.61
  C13                  CONDUIT     1.479     0  03:02      1.53    0.09    0.77
  C18                  CONDUIT     0.791     0  02:13      1.72    0.03    0.56
  C23                  CONDUIT     1.661     0  02:17      1.38    0.18    0.65
  C4                   CONDUIT     0.550     0  02:13      1.98    0.13    0.62
  C7                   CONDUIT     0.279     0  02:17      1.43    0.07    0.59
  C14                  CONDUIT     0.271     0  02:04      2.08    0.02    0.09
  C5                   CONDUIT     0.073     0  01:51      1.43    1.25    1.00
  C8                   CONDUIT     0.127     0  02:51      1.75    1.60    0.86
  C15                  CONDUIT     0.487     0  02:51      3.42    1.55    0.83
  C21                  CONDUIT     0.202     0  02:29      1.83    1.16    0.69
  V4                   ORIFICE     0.080     0  03:00                      1.00
  V5                   ORIFICE     0.039     0  02:16                      1.00
  V1                   ORIFICE     0.271     0  02:02                      1.00
  V6                   ORIFICE     0.175     0  02:15                      1.00
  V3                   ORIFICE     0.190     0  02:58                      1.00
  V2                   ORIFICE     0.140     0  02:39                      1.00
  
  
  ***************************
  Flow Classification Summary
  ***************************
  
  -------------------------------------------------------------------------------------
                      Adjusted    ---------- Fraction of Time in Flow Class ---------- 
                       /Actual         Up    Down  Sub   Sup   Up    Down  Norm  Inlet 
  Conduit               Length    Dry  Dry   Dry   Crit  Crit  Crit  Crit  Ltd   Ctrl  
  -------------------------------------------------------------------------------------
  C1                      1.00   0.00  0.00  0.00  0.92  0.08  0.00  0.00  0.95  0.00
  C6                      1.00   0.00  0.00  0.00  0.20  0.80  0.00  0.00  0.00  0.00
  C2                      1.00   0.00  0.00  0.00  0.01  0.99  0.00  0.00  0.94  0.00
  C9                      1.00   0.00  0.00  0.00  1.00  0.00  0.00  0.00  1.00  0.00
  C16                     1.00   0.00  0.00  0.00  0.55  0.45  0.00  0.00  0.50  0.00
  C3                      1.00   0.00  0.00  0.00  0.05  0.94  0.00  0.00  0.07  0.00
  C19                     1.00   0.00  0.00  0.00  0.61  0.39  0.00  0.00  1.00  0.00
  C11                     1.00   0.00  0.00  0.00  0.30  0.69  0.00  0.00  1.00  0.00
  C20                     1.00   0.00  0.00  0.00  0.64  0.36  0.00  0.00  0.98  0.00
  C22                     1.00   0.00  0.00  0.00  0.88  0.12  0.00  0.00  1.00  0.00
  C12                     1.00   0.00  0.00  0.00  0.94  0.06  0.00  0.00  1.00  0.00
  C17                     1.00   0.00  0.00  0.00  0.66  0.34  0.00  0.00  0.95  0.00
  C10                     1.00   0.00  0.00  0.00  0.94  0.06  0.00  0.00  0.97  0.00
  C13                     1.00   0.00  0.00  0.00  0.83  0.17  0.00  0.00  0.23  0.00
  C18                     1.00   0.00  0.00  0.00  0.83  0.17  0.00  0.00  0.97  0.00
  C23                     1.00   0.00  0.00  0.00  0.90  0.10  0.00  0.00  0.94  0.00
  C4                      1.00   0.00  0.00  0.00  0.96  0.04  0.00  0.00  0.98  0.00
  C7                      1.00   0.00  0.00  0.00  0.91  0.09  0.00  0.00  0.96  0.00
  C14                     1.00   0.00  0.00  0.00  0.00  0.99  0.00  0.00  0.00  0.00
  C5                      1.00   0.00  0.00  0.00  0.91  0.09  0.00  0.00  0.80  0.00
  C8                      1.00   0.00  0.00  0.00  0.21  0.79  0.00  0.00  0.00  0.00
  C15                     1.00   0.00  0.00  0.00  0.00  1.00  0.00  0.00  0.00  0.00
  C21                     1.00   0.00  0.00  0.00  0.00  1.00  0.00  0.00  0.00  0.00
  
  
  *************************
  Conduit Surcharge Summary
  *************************
  
  ----------------------------------------------------------------------------
                                                           Hours        Hours 
                         --------- Hours Full --------   Above Full   Capacity
  Conduit                Both Ends  Upstream  Dnstream   Normal Flow   Limited
  ----------------------------------------------------------------------------
  C6                          0.01      1.39      0.01      1.29         0.01
  C10                         0.01      0.01      5.93      0.01         0.01
  C13                         0.01      0.01      5.76      0.01         0.01
  C18                         0.01      0.01      4.95      0.01         0.01
  C23                         0.01      0.01      6.21      0.01         0.01
  C4                          0.01      0.01      6.24      0.01         0.01
  C7                          0.01      0.01      5.93      0.01         0.01
  C5                          1.41      1.42      1.51      1.47         1.38
  C8                          0.01      1.44      0.01      1.46         0.01
  C15                         0.01      1.43      0.01      1.49         0.01
  C21                         0.01      1.23      0.01      1.23         0.01
  

  Analysis begun on:  Fri Sep  3 16:39:26 2021
  Analysis ended on:  Fri Sep  3 16:39:27 2021
  Total elapsed time: 00:00:01