
  EPA STORM WATER MANAGEMENT MODEL - VERSION 5.1 (Build 5.3.0.dev0)
  --------------------------------------------------------------

  
  *********************************************************
  NOTE: The summary statistics displayed in this report are
  based on results found at every computational time step,  
  not just on results from each reporting time step.
  *********************************************************
  
  ****************
  Analysis Options
  ****************
  Flow Units ............... CMS
  Process Models:
    Rainfall/Runoff ........ YES
    RDII ................... NO
    Snowmelt ............... NO
    Groundwater ............ NO
    Flow Routing ........... YES
    Ponding Allowed ........ YES
    Water Quality .......... NO
  Infiltration Method ...... HORTON
  Flow Routing Method ...... DYNWAVE
  Surcharge Method ......... EXTRAN
  Starting Date ............ 08/28/2015 08:00:00
  Ending Date .............. 08/28/2015 15:50:00
  Antecedent Dry Days ...... 0.0
  Report Time Step ......... 00:01:00
  Wet Time Step ............ 00:01:00
  Dry Time Step ............ 00:01:00
  Routing Time Step ........ 5.00 sec
  Variable Time Step ....... YES
  Maximum Trials ........... 8
  Number of Threads ........ 1
  Head Tolerance ........... 0.001500 m
  
  
  **************************        Volume         Depth
  Runoff Quantity Continuity     hectare-m            mm
  **************************     ---------       -------
  Total Precipitation ......         2.725        15.122
  Evaporation Loss .........         0.000         0.000
  Infiltration Loss ........         0.000         0.000
  Surface Runoff ...........         2.701        14.990
  Final Storage ............         0.024         0.133
  Continuity Error (%) .....        -0.006
  
  
  **************************        Volume        Volume
  Flow Routing Continuity        hectare-m      10^6 ltr
  **************************     ---------     ---------
  Dry Weather Inflow .......         0.396         3.956
  Wet Weather Inflow .......         2.701        27.013
  Groundwater Inflow .......         0.000         0.000
  RDII Inflow ..............         0.000         0.000
  External Inflow ..........         0.000         0.000
  External Outflow .........         0.618         6.183
  Flooding Loss ............         1.637        16.367
  Evaporation Loss .........         0.000         0.000
  Exfiltration Loss ........         0.000         0.000
  Initial Stored Volume ....         0.000         0.000
  Final Stored Volume ......         0.686         6.857
  Continuity Error (%) .....         5.042
  
  
  *************************
  Highest Continuity Errors
  *************************
  Node T3 (14.34%)
  Node T5 (13.74%)
  Node T2 (8.12%)
  Node J12 (6.46%)
  Node T4 (6.29%)
  
  
  ***************************
  Time-Step Critical Elements
  ***************************
  None
  
  
  ********************************
  Highest Flow Instability Indexes
  ********************************
  All links are stable.
  
  
  *************************
  Routing Time Step Summary
  *************************
  Minimum Time Step           :     1.69 sec
  Average Time Step           :     5.00 sec
  Maximum Time Step           :     5.00 sec
  Percent in Steady State     :     0.00
  Average Iterations per Step :     2.18
  Percent Not Converging      :     0.58
  
  
  ***************************
  Subcatchment Runoff Summary
  ***************************
  
  ------------------------------------------------------------------------------------------------------------------------------
                            Total      Total      Total      Total     Imperv       Perv      Total       Total     Peak  Runoff
                           Precip      Runon       Evap      Infil     Runoff     Runoff     Runoff      Runoff   Runoff   Coeff
  Subcatchment                 mm         mm         mm         mm         mm         mm         mm    10^6 ltr      CMS
  ------------------------------------------------------------------------------------------------------------------------------
  SC01                      15.12       0.00       0.00       0.00      15.04       0.00      15.04        4.96     1.28   0.994
  SC02                      15.12       0.00       0.00       0.00      15.03       0.00      15.03        3.42     0.87   0.994
  SC03                      15.12       0.00       0.00       0.00      15.05       0.00      15.05        2.71     0.73   0.995
  SC04                      15.12       0.00       0.00       0.00      14.92       0.00      14.92        1.03     0.23   0.987
  SC05                      15.12       0.00       0.00       0.00      15.03       0.00      15.03        2.34     0.60   0.994
  SC06                      15.12       0.00       0.00       0.00      14.87       0.00      14.87        4.84     1.04   0.983
  SC07                      15.12       0.00       0.00       0.00      14.92       0.00      14.92        0.71     0.16   0.987
  SC08                      15.12       0.00       0.00       0.00      15.00       0.00      15.00        4.20     1.03   0.992
  SC09                      15.12       0.00       0.00       0.00      14.98       0.00      14.98        1.03     0.24   0.991
  SC010                     15.12       0.00       0.00       0.00      15.01       0.00      15.01        1.76     0.43   0.993
  
  
  ******************
  Node Depth Summary
  ******************
  
  ---------------------------------------------------------------------------------
                                 Average  Maximum  Maximum  Time of Max    Reported
                                   Depth    Depth      HGL   Occurrence   Max Depth
  Node                 Type       Meters   Meters   Meters  days hr:min      Meters
  ---------------------------------------------------------------------------------
  J1                   JUNCTION     0.09     0.26    34.26     0  02:26        0.26
  J3                   JUNCTION     0.14     0.17    18.17     0  03:34        0.17
  CSO7                 JUNCTION     0.28     1.20    35.20     0  01:55        1.20
  J5                   JUNCTION     0.08     0.19    32.19     0  02:30        0.19
  CSO9                 JUNCTION     0.40     2.00    42.00     0  02:02        2.00
  J8                   JUNCTION     0.14     0.36    36.36     0  02:31        0.36
  CSO8                 JUNCTION     0.41     2.00    34.00     0  01:59        2.00
  J10                  JUNCTION     0.12     0.33    29.33     0  02:26        0.33
  J13                  JUNCTION     0.08     0.25    29.25     0  02:26        0.25
  J15                  JUNCTION     0.23     0.46    15.46     0  02:29        0.46
  J16                  JUNCTION     0.08     0.28    30.28     0  02:26        0.27
  CSO10                JUNCTION     0.24     1.00    31.00     0  01:59        1.00
  J12                  JUNCTION     0.70     1.03    27.03     0  03:01        1.03
  J4                   JUNCTION     0.21     1.22    34.22     0  01:55        0.77
  J6                   JUNCTION     0.09     0.12    25.12     0  03:27        0.12
  J2                   JUNCTION     0.07     0.08    25.08     0  03:15        0.08
  J19                  JUNCTION     0.15     0.17     8.17     0  02:06        0.17
  J9                   JUNCTION     0.13     0.16    29.16     0  03:37        0.16
  J14                  JUNCTION     0.15     0.19    20.19     0  06:17        0.19
  J17                  JUNCTION     0.11     0.15    20.15     0  03:14        0.15
  J7                   JUNCTION     0.10     0.23    39.23     0  03:03        0.23
  J11                  JUNCTION     0.12     0.30    31.30     0  03:03        0.30
  J18                  JUNCTION     0.07     0.16    29.16     0  02:36        0.16
  Out_to_WWTP          OUTFALL      0.15     0.17     6.17     0  02:06        0.17
  T5                   STORAGE      3.61     5.00    32.00     0  02:22        5.00
  T4                   STORAGE      2.64     5.00    32.00     0  02:55        5.00
  T6                   STORAGE      2.93     5.00    36.00     0  02:21        5.00
  T3                   STORAGE      3.60     5.00    27.00     0  02:54        5.00
  T2                   STORAGE      2.61     5.00    26.00     0  02:38        5.00
  T1                   STORAGE      3.90     5.00    15.00     0  02:05        5.00
  
  
  *******************
  Node Inflow Summary
  *******************
  
  -------------------------------------------------------------------------------------------------
                                  Maximum  Maximum                  Lateral       Total        Flow
                                  Lateral    Total  Time of Max      Inflow      Inflow     Balance
                                   Inflow   Inflow   Occurrence      Volume      Volume       Error
  Node                 Type           CMS      CMS  days hr:min    10^6 ltr    10^6 ltr     Percent
  -------------------------------------------------------------------------------------------------
  J1                   JUNCTION     0.617    0.617     0  02:26        2.91        2.91       0.006
  J3                   JUNCTION     0.000    0.309     0  03:01           0        6.42       0.770
  CSO7                 JUNCTION     0.170    0.170     0  02:29       0.999       0.999       0.046
  J5                   JUNCTION     0.236    0.308     0  02:29        1.16        1.92       0.051
  CSO9                 JUNCTION     0.252    0.252     0  02:28        1.23        1.23       0.038
  J8                   JUNCTION     1.073    1.200     0  02:31        5.78        6.77       0.049
  CSO8                 JUNCTION     1.037    1.037     0  02:27        4.49        4.49       0.012
  J10                  JUNCTION     0.745    1.230     0  02:25         3.1        6.55      -0.052
  J13                  JUNCTION     0.888    0.888     0  02:26        3.89        3.89      -0.164
  J15                  JUNCTION     0.000    1.865     0  02:27           0        15.9       0.748
  J16                  JUNCTION     1.299    1.299     0  02:26        5.52        5.52      -0.032
  CSO10                JUNCTION     0.439    0.439     0  02:27         1.9         1.9       0.016
  J12                  JUNCTION     0.000    1.399     0  02:26           0        9.98       6.908
  J4                   JUNCTION     0.000    0.073     0  02:30           0       0.764       0.438
  J6                   JUNCTION     0.000    0.080     0  02:55           0        1.47       0.377
  J2                   JUNCTION     0.000    0.039     0  02:22           0       0.872       0.606
  J19                  JUNCTION     0.000    0.271     0  02:05           0         6.2       0.204
  J9                   JUNCTION     0.000    0.175     0  02:21           0        3.44       0.545
  J14                  JUNCTION     0.000    0.190     0  02:54           0         4.1       0.245
  J17                  JUNCTION     0.000    0.140     0  02:39           0        2.57       0.448
  J7                   JUNCTION     0.000    0.127     0  03:03           0       0.995       0.311
  J11                  JUNCTION     0.000    0.486     0  03:03           0        3.46       0.188
  J18                  JUNCTION     0.000    0.202     0  02:36           0        1.46       0.022
  Out_to_WWTP          OUTFALL      0.000    0.271     0  02:07           0        6.18       0.000
  T5                   STORAGE      0.000    0.616     0  02:26           0        2.91      15.925
  T4                   STORAGE      0.000    0.308     0  02:30           0        1.92       6.711
  T6                   STORAGE      0.000    1.199     0  02:31           0        6.77       4.261
  T3                   STORAGE      0.000    1.387     0  02:28           0        9.34      16.739
  T2                   STORAGE      0.000    0.888     0  02:26           0        3.89       8.834
  T1                   STORAGE      0.000    1.843     0  02:30           0        15.8       5.541
  
  
  **********************
  Node Surcharge Summary
  **********************
  
  Surcharging occurs when water rises above the top of the highest conduit.
  ---------------------------------------------------------------------
                                               Max. Height   Min. Depth
                                   Hours       Above Crown    Below Rim
  Node                 Type      Surcharged         Meters       Meters
  ---------------------------------------------------------------------
  CSO7                 JUNCTION        1.44          0.945        0.000
  CSO9                 JUNCTION        1.46          1.682        0.000
  CSO8                 JUNCTION        1.44          1.547        0.000
  CSO10                JUNCTION        1.20          0.560        0.000
  J4                   JUNCTION        1.41          0.916        0.784
  
  
  *********************
  Node Flooding Summary
  *********************
  
  Flooding refers to all water that overflows a node, whether it ponds or not.
  --------------------------------------------------------------------------
                                                             Total   Maximum
                                 Maximum   Time of Max       Flood    Ponded
                        Hours       Rate    Occurrence      Volume     Depth
  Node                 Flooded       CMS   days hr:min    10^6 ltr    Meters
  --------------------------------------------------------------------------
  CSO7                    1.26     0.097      0  02:29       0.235     0.000
  CSO9                    1.01     0.124      0  02:28       0.234     0.000
  CSO8                    1.05     0.551      0  02:27       1.031     0.000
  CSO10                   1.07     0.236      0  02:27       0.444     0.000
  T5                      1.59     0.577      0  02:26       1.233     0.000
  T4                      0.65     0.160      0  02:55       0.171     0.000
  T6                      1.54     1.024      0  02:31       2.871     0.000
  T3                      1.97     0.949      0  03:04       1.387     0.000
  T2                      0.67     0.581      0  02:38       0.703     0.000
  T1                      5.74     1.572      0  02:30       8.058     0.000
  
  
  **********************
  Storage Volume Summary
  **********************
  
  --------------------------------------------------------------------------------------------------
                         Average     Avg  Evap Exfil       Maximum     Max    Time of Max    Maximum
                          Volume    Pcnt  Pcnt  Pcnt        Volume    Pcnt     Occurrence    Outflow
  Storage Unit           1000 m3    Full  Loss  Loss       1000 m3    Full    days hr:min        CMS
  --------------------------------------------------------------------------------------------------
  T5                       0.361      72     0     0         0.500     100       0  02:22      0.039
  T4                       0.264      53     0     0         0.500     100       0  02:55      0.080
  T6                       0.352      59     0     0         0.600     100       0  02:21      0.175
  T3                       1.874      72     0     0         2.600     100       0  02:54      0.231
  T2                       0.523      52     0     0         1.000     100       0  02:38      0.140
  T1                       0.546      78     0     0         0.700     100       0  02:05      0.271
  
  
  ***********************
  Outfall Loading Summary
  ***********************
  
  -----------------------------------------------------------
                         Flow       Avg       Max       Total
                         Freq      Flow      Flow      Volume
  Outfall Node           Pcnt       CMS       CMS    10^6 ltr
  -----------------------------------------------------------
  Out_to_WWTP           99.01     0.221     0.271       6.182
  -----------------------------------------------------------
  System                99.01     0.221     0.271       6.182
  
  
  ********************
  Link Flow Summary
  ********************
  
  -----------------------------------------------------------------------------
                                 Maximum  Time of Max   Maximum    Max/    Max/
                                  |Flow|   Occurrence   |Veloc|    Full    Full
  Link                 Type          CMS  days hr:min     m/sec    Flow   Depth
  -----------------------------------------------------------------------------
  C1                   CONDUIT     0.039     0  03:13      0.91    0.01    0.13
  C6                   CONDUIT     0.073     0  02:30      1.29    1.16    0.81
  C2                   CONDUIT     0.080     0  03:27      1.48    0.09    0.25
  C9                   CONDUIT     0.127     0  03:03      1.30    0.43    0.59
  C16                  CONDUIT     0.488     0  02:11      1.79    0.05    0.16
  C3                   CONDUIT     0.190     0  02:56      2.05    0.07    0.18
  C19                  CONDUIT     0.140     0  03:14      1.24    0.05    0.30
  C11                  CONDUIT     0.309     0  03:34      1.85    0.02    0.15
  C20                  CONDUIT     1.298     0  02:26      3.35    0.04    0.18
  C22                  CONDUIT     0.202     0  02:36      1.50    0.09    0.39
  C12                  CONDUIT     0.175     0  03:37      0.76    0.01    0.30
  C17                  CONDUIT     1.225     0  02:26      3.21    0.06    0.33
  C10                  CONDUIT     1.199     0  02:31      1.66    0.12    0.62
  C13                  CONDUIT     1.387     0  02:28      1.53    0.08    0.76
  C18                  CONDUIT     0.888     0  02:26      1.72    0.03    0.56
  C23                  CONDUIT     1.843     0  02:30      1.51    0.20    0.65
  C4                   CONDUIT     0.616     0  02:26      1.98    0.15    0.63
  C7                   CONDUIT     0.308     0  02:30      1.43    0.08    0.59
  C14                  CONDUIT     0.271     0  02:07      2.08    0.02    0.09
  C5                   CONDUIT     0.073     0  02:30      1.42    1.24    1.00
  C8                   CONDUIT     0.127     0  03:03      1.75    1.60    0.86
  C15                  CONDUIT     0.486     0  03:03      3.42    1.55    0.83
  C21                  CONDUIT     0.202     0  02:36      1.82    1.16    0.69
  V4                   ORIFICE     0.080     0  02:55                      1.00
  V5                   ORIFICE     0.039     0  02:22                      1.00
  V1                   ORIFICE     0.271     0  02:05                      1.00
  V6                   ORIFICE     0.175     0  02:21                      1.00
  V3                   ORIFICE     0.190     0  02:54                      1.00
  V2                   ORIFICE     0.140     0  02:39                      1.00
  
  
  ***************************
  Flow Classification Summary
  ***************************
  
  -------------------------------------------------------------------------------------
                      Adjusted    ---------- Fraction of Time in Flow Class ---------- 
                       /Actual         Up    Down  Sub   Sup   Up    Down  Norm  Inlet 
  Conduit               Length    Dry  Dry   Dry   Crit  Crit  Crit  Crit  Ltd   Ctrl  
  -------------------------------------------------------------------------------------
  C1                      1.00   0.00  0.00  0.00  0.92  0.08  0.00  0.00  0.95  0.00
  C6                      1.00   0.00  0.00  0.00  0.21  0.79  0.00  0.00  0.00  0.00
  C2                      1.00   0.00  0.00  0.00  0.01  0.99  0.00  0.00  0.94  0.00
  C9                      1.00   0.00  0.00  0.00  1.00  0.00  0.00  0.00  1.00  0.00
  C16                     1.00   0.00  0.00  0.00  0.54  0.46  0.00  0.00  0.46  0.00
  C3                      1.00   0.00  0.00  0.00  0.05  0.94  0.00  0.00  0.07  0.00
  C19                     1.00   0.00  0.00  0.00  0.61  0.39  0.00  0.00  1.00  0.00
  C11                     1.00   0.00  0.00  0.00  0.31  0.69  0.00  0.00  1.00  0.00
  C20                     1.00   0.00  0.00  0.00  0.63  0.37  0.00  0.00  0.98  0.00
  C22                     1.00   0.00  0.00  0.00  0.86  0.14  0.00  0.00  1.00  0.00
  C12                     1.00   0.00  0.00  0.00  0.94  0.06  0.00  0.00  1.00  0.00
  C17                     1.00   0.00  0.00  0.00  0.66  0.34  0.00  0.00  0.95  0.00
  C10                     1.00   0.00  0.00  0.00  0.94  0.06  0.00  0.00  0.97  0.00
  C13                     1.00   0.00  0.00  0.00  0.83  0.17  0.00  0.00  0.24  0.00
  C18                     1.00   0.00  0.00  0.00  0.83  0.17  0.00  0.00  0.97  0.00
  C23                     1.00   0.00  0.00  0.00  0.90  0.10  0.00  0.00  0.94  0.00
  C4                      1.00   0.00  0.00  0.00  0.96  0.04  0.00  0.00  0.98  0.00
  C7                      1.00   0.00  0.00  0.00  0.91  0.09  0.00  0.00  0.96  0.00
  C14                     1.00   0.00  0.00  0.00  0.00  0.99  0.00  0.00  0.00  0.00
  C5                      1.00   0.00  0.00  0.00  0.91  0.09  0.00  0.00  0.79  0.00
  C8                      1.00   0.00  0.00  0.00  0.22  0.78  0.00  0.00  0.00  0.00
  C15                     1.00   0.00  0.00  0.00  0.00  1.00  0.00  0.00  0.00  0.00
  C21                     1.00   0.00  0.00  0.00  0.00  1.00  0.00  0.00  0.00  0.00
  
  
  *************************
  Conduit Surcharge Summary
  *************************
  
  ----------------------------------------------------------------------------
                                                           Hours        Hours 
                         --------- Hours Full --------   Above Full   Capacity
  Conduit                Both Ends  Upstream  Dnstream   Normal Flow   Limited
  ----------------------------------------------------------------------------
  C6                          0.01      1.41      0.01      1.31         0.01
  C10                         0.01      0.01      5.97      0.01         0.01
  C13                         0.01      0.01      5.71      0.01         0.01
  C18                         0.01      0.01      4.93      0.01         0.01
  C23                         0.01      0.01      6.19      0.01         0.01
  C4                          0.01      0.01      6.23      0.01         0.01
  C7                          0.01      0.01      5.90      0.01         0.01
  C5                          1.43      1.44      1.53      1.49         1.40
  C8                          0.01      1.46      0.01      1.48         0.01
  C15                         0.01      1.44      0.01      1.50         0.01
  C21                         0.01      1.20      0.01      1.20         0.01
  

  Analysis begun on:  Fri Sep  3 16:38:28 2021
  Analysis ended on:  Fri Sep  3 16:38:29 2021
  Total elapsed time: 00:00:01