
  EPA STORM WATER MANAGEMENT MODEL - VERSION 5.1 (Build 5.3.0.dev0)
  --------------------------------------------------------------

  
  *********************************************************
  NOTE: The summary statistics displayed in this report are
  based on results found at every computational time step,  
  not just on results from each reporting time step.
  *********************************************************
  
  ****************
  Analysis Options
  ****************
  Flow Units ............... CMS
  Process Models:
    Rainfall/Runoff ........ YES
    RDII ................... NO
    Snowmelt ............... NO
    Groundwater ............ NO
    Flow Routing ........... YES
    Ponding Allowed ........ YES
    Water Quality .......... NO
  Infiltration Method ...... HORTON
  Flow Routing Method ...... DYNWAVE
  Surcharge Method ......... EXTRAN
  Starting Date ............ 08/28/2015 08:00:00
  Ending Date .............. 08/28/2015 15:50:00
  Antecedent Dry Days ...... 0.0
  Report Time Step ......... 00:01:00
  Wet Time Step ............ 00:01:00
  Dry Time Step ............ 00:01:00
  Routing Time Step ........ 5.00 sec
  Variable Time Step ....... YES
  Maximum Trials ........... 8
  Number of Threads ........ 1
  Head Tolerance ........... 0.001500 m
  
  
  **************************        Volume         Depth
  Runoff Quantity Continuity     hectare-m            mm
  **************************     ---------       -------
  Total Precipitation ......         1.202         6.671
  Evaporation Loss .........         0.000         0.000
  Infiltration Loss ........         0.000         0.000
  Surface Runoff ...........         1.180         6.547
  Final Storage ............         0.022         0.125
  Continuity Error (%) .....        -0.009
  
  
  **************************        Volume        Volume
  Flow Routing Continuity        hectare-m      10^6 ltr
  **************************     ---------     ---------
  Dry Weather Inflow .......         0.396         3.956
  Wet Weather Inflow .......         1.180        11.799
  Groundwater Inflow .......         0.000         0.000
  RDII Inflow ..............         0.000         0.000
  External Inflow ..........         0.000         0.000
  External Outflow .........         0.617         6.169
  Flooding Loss ............         0.317         3.172
  Evaporation Loss .........         0.000         0.000
  Exfiltration Loss ........         0.000         0.000
  Initial Stored Volume ....         0.000         0.000
  Final Stored Volume ......         0.511         5.113
  Continuity Error (%) .....         8.250
  
  
  *************************
  Highest Continuity Errors
  *************************
  Node T5 (23.74%)
  Node T3 (16.35%)
  Node T1 (7.63%)
  Node T6 (6.34%)
  Node T2 (4.38%)
  
  
  ***************************
  Time-Step Critical Elements
  ***************************
  None
  
  
  ********************************
  Highest Flow Instability Indexes
  ********************************
  All links are stable.
  
  
  *************************
  Routing Time Step Summary
  *************************
  Minimum Time Step           :     0.99 sec
  Average Time Step           :     5.00 sec
  Maximum Time Step           :     5.00 sec
  Percent in Steady State     :     0.00
  Average Iterations per Step :     2.11
  Percent Not Converging      :     0.35
  
  
  ***************************
  Subcatchment Runoff Summary
  ***************************
  
  ------------------------------------------------------------------------------------------------------------------------------
                            Total      Total      Total      Total     Imperv       Perv      Total       Total     Peak  Runoff
                           Precip      Runon       Evap      Infil     Runoff     Runoff     Runoff      Runoff   Runoff   Coeff
  Subcatchment                 mm         mm         mm         mm         mm         mm         mm    10^6 ltr      CMS
  ------------------------------------------------------------------------------------------------------------------------------
  SC01                       6.67       0.00       0.00       0.00       6.59       0.00       6.59        2.17     0.55   0.987
  SC02                       6.67       0.00       0.00       0.00       6.58       0.00       6.58        1.50     0.37   0.987
  SC03                       6.67       0.00       0.00       0.00       6.60       0.00       6.60        1.19     0.33   0.990
  SC04                       6.67       0.00       0.00       0.00       6.49       0.00       6.49        0.45     0.09   0.973
  SC05                       6.67       0.00       0.00       0.00       6.58       0.00       6.58        1.03     0.26   0.987
  SC06                       6.67       0.00       0.00       0.00       6.44       0.00       6.44        2.10     0.38   0.966
  SC07                       6.67       0.00       0.00       0.00       6.49       0.00       6.49        0.31     0.06   0.973
  SC08                       6.67       0.00       0.00       0.00       6.56       0.00       6.56        1.84     0.42   0.983
  SC09                       6.67       0.00       0.00       0.00       6.54       0.00       6.54        0.45     0.10   0.980
  SC010                      6.67       0.00       0.00       0.00       6.56       0.00       6.56        0.77     0.18   0.984
  
  
  ******************
  Node Depth Summary
  ******************
  
  ---------------------------------------------------------------------------------
                                 Average  Maximum  Maximum  Time of Max    Reported
                                   Depth    Depth      HGL   Occurrence   Max Depth
  Node                 Type       Meters   Meters   Meters  days hr:min      Meters
  ---------------------------------------------------------------------------------
  J1                   JUNCTION     0.07     0.17    34.17     0  01:46        0.17
  J3                   JUNCTION     0.13     0.16    18.16     0  04:06        0.16
  CSO7                 JUNCTION     0.14     1.20    35.20     0  01:51        1.13
  J5                   JUNCTION     0.06     0.14    32.14     0  01:55        0.14
  CSO9                 JUNCTION     0.15     1.10    41.10     0  01:49        1.09
  J8                   JUNCTION     0.11     0.23    36.23     0  01:56        0.23
  CSO8                 JUNCTION     0.18     1.47    33.47     0  01:48        1.47
  J10                  JUNCTION     0.10     0.26    29.26     0  01:48        0.26
  J13                  JUNCTION     0.06     0.17    29.17     0  01:46        0.17
  J15                  JUNCTION     0.20     0.32    15.32     0  01:52        0.32
  J16                  JUNCTION     0.07     0.19    30.19     0  01:46        0.19
  CSO10                JUNCTION     0.13     0.78    30.78     0  01:45        0.70
  J12                  JUNCTION     0.18     0.30    26.30     0  01:52        0.30
  J4                   JUNCTION     0.14     1.15    34.15     0  01:51        0.72
  J6                   JUNCTION     0.08     0.10    25.10     0  03:23        0.10
  J2                   JUNCTION     0.07     0.08    25.08     0  03:46        0.08
  J19                  JUNCTION     0.15     0.17     8.17     0  02:08        0.17
  J9                   JUNCTION     0.13     0.16    29.16     0  03:24        0.16
  J14                  JUNCTION     0.15     0.18    20.18     0  06:09        0.18
  J17                  JUNCTION     0.10     0.12    20.12     0  03:13        0.12
  J7                   JUNCTION     0.08     0.20    39.20     0  01:53        0.20
  J11                  JUNCTION     0.10     0.28    31.28     0  01:50        0.28
  J18                  JUNCTION     0.05     0.16    29.16     0  01:49        0.16
  Out_to_WWTP          OUTFALL      0.15     0.17     6.17     0  02:07        0.17
  T5                   STORAGE      3.31     4.72    31.72     0  03:44        4.72
  T4                   STORAGE      1.33     2.56    29.56     0  03:21        2.56
  T6                   STORAGE      2.64     5.00    36.00     0  03:07        5.00
  T3                   STORAGE      2.94     4.23    26.23     0  05:31        4.23
  T2                   STORAGE      1.24     2.40    23.40     0  03:11        2.40
  T1                   STORAGE      3.89     5.00    15.00     0  02:06        5.00
  
  
  *******************
  Node Inflow Summary
  *******************
  
  -------------------------------------------------------------------------------------------------
                                  Maximum  Maximum                  Lateral       Total        Flow
                                  Lateral    Total  Time of Max      Inflow      Inflow     Balance
                                   Inflow   Inflow   Occurrence      Volume      Volume       Error
  Node                 Type           CMS      CMS  days hr:min    10^6 ltr    10^6 ltr     Percent
  -------------------------------------------------------------------------------------------------
  J1                   JUNCTION     0.274    0.274     0  01:46        1.59        1.59       0.016
  J3                   JUNCTION     0.000    0.265     0  04:04           0        5.58       0.799
  CSO7                 JUNCTION     0.069    0.069     0  01:53       0.599       0.599       0.076
  J5                   JUNCTION     0.091    0.161     0  01:53       0.575        1.17       0.079
  CSO9                 JUNCTION     0.104    0.104     0  01:50       0.647       0.647       0.060
  J8                   JUNCTION     0.410    0.510     0  01:56        3.04        3.68       0.083
  CSO8                 JUNCTION     0.433    0.433     0  01:48        2.13        2.13       0.019
  J10                  JUNCTION     0.340    0.754     0  01:47        1.57         3.7       0.121
  J13                  JUNCTION     0.389    0.389     0  01:46        1.97        1.97      -0.324
  J15                  JUNCTION     0.000    0.933     0  01:49           0        10.9       0.941
  J16                  JUNCTION     0.572    0.572     0  01:45        2.73        2.73      -0.028
  CSO10                JUNCTION     0.184    0.184     0  01:48        0.91        0.91       0.023
  J12                  JUNCTION     0.000    0.834     0  01:49           0        6.93       0.375
  J4                   JUNCTION     0.000    0.069     0  01:53           0       0.598       0.564
  J6                   JUNCTION     0.000    0.057     0  03:21           0        1.06       0.371
  J2                   JUNCTION     0.000    0.038     0  03:44           0       0.836       0.617
  J19                  JUNCTION     0.000    0.271     0  02:06           0        6.18       0.204
  J9                   JUNCTION     0.000    0.175     0  03:07           0        3.26       0.633
  J14                  JUNCTION     0.000    0.174     0  05:31           0        3.71       0.254
  J17                  JUNCTION     0.000    0.097     0  03:11           0        1.78       0.439
  J7                   JUNCTION     0.000    0.104     0  01:50           0       0.647       0.489
  J11                  JUNCTION     0.000    0.433     0  01:48           0        2.13       0.292
  J18                  JUNCTION     0.000    0.184     0  01:48           0        0.91       0.063
  Out_to_WWTP          OUTFALL      0.000    0.271     0  02:08           0        6.17       0.000
  T5                   STORAGE      0.000    0.273     0  01:46           0        1.59      31.135
  T4                   STORAGE      0.000    0.161     0  01:55           0        1.17       4.531
  T6                   STORAGE      0.000    0.510     0  01:56           0        3.68       6.769
  T3                   STORAGE      0.000    0.827     0  01:52           0         6.9      19.542
  T2                   STORAGE      0.000    0.388     0  01:46           0        1.97       4.583
  T1                   STORAGE      0.000    0.923     0  01:52           0        10.8       8.257
  
  
  **********************
  Node Surcharge Summary
  **********************
  
  Surcharging occurs when water rises above the top of the highest conduit.
  ---------------------------------------------------------------------
                                               Max. Height   Min. Depth
                                   Hours       Above Crown    Below Rim
  Node                 Type      Surcharged         Meters       Meters
  ---------------------------------------------------------------------
  CSO7                 JUNCTION        0.44          0.945        0.000
  CSO9                 JUNCTION        0.49          0.777        0.905
  CSO8                 JUNCTION        0.48          1.018        0.529
  CSO10                JUNCTION        0.24          0.339        0.221
  J4                   JUNCTION        0.40          0.848        0.852
  
  
  *********************
  Node Flooding Summary
  *********************
  
  Flooding refers to all water that overflows a node, whether it ponds or not.
  --------------------------------------------------------------------------
                                                             Total   Maximum
                                 Maximum   Time of Max       Flood    Ponded
                        Hours       Rate    Occurrence      Volume     Depth
  Node                 Flooded       CMS   days hr:min    10^6 ltr    Meters
  --------------------------------------------------------------------------
  CSO7                    0.01     0.004      0  01:51       0.000     0.000
  T6                      0.29     0.084      0  03:07       0.040     0.000
  T1                      5.72     0.574      0  02:06       3.133     0.000
  
  
  **********************
  Storage Volume Summary
  **********************
  
  --------------------------------------------------------------------------------------------------
                         Average     Avg  Evap Exfil       Maximum     Max    Time of Max    Maximum
                          Volume    Pcnt  Pcnt  Pcnt        Volume    Pcnt     Occurrence    Outflow
  Storage Unit           1000 m3    Full  Loss  Loss       1000 m3    Full    days hr:min        CMS
  --------------------------------------------------------------------------------------------------
  T5                       0.331      66     0     0         0.472      94       0  03:44      0.038
  T4                       0.133      27     0     0         0.256      51       0  03:21      0.057
  T6                       0.317      53     0     0         0.600     100       0  03:07      0.175
  T3                       1.528      59     0     0         2.200      85       0  05:31      0.174
  T2                       0.247      25     0     0         0.480      48       0  03:11      0.097
  T1                       0.545      78     0     0         0.700     100       0  02:06      0.271
  
  
  ***********************
  Outfall Loading Summary
  ***********************
  
  -----------------------------------------------------------
                         Flow       Avg       Max       Total
                         Freq      Flow      Flow      Volume
  Outfall Node           Pcnt       CMS       CMS    10^6 ltr
  -----------------------------------------------------------
  Out_to_WWTP           99.01     0.221     0.271       6.169
  -----------------------------------------------------------
  System                99.01     0.221     0.271       6.169
  
  
  ********************
  Link Flow Summary
  ********************
  
  -----------------------------------------------------------------------------
                                 Maximum  Time of Max   Maximum    Max/    Max/
                                  |Flow|   Occurrence   |Veloc|    Full    Full
  Link                 Type          CMS  days hr:min     m/sec    Flow   Depth
  -----------------------------------------------------------------------------
  C1                   CONDUIT     0.038     0  03:46      0.91    0.01    0.12
  C6                   CONDUIT     0.069     0  01:53      1.28    1.10    0.73
  C2                   CONDUIT     0.057     0  03:23      1.25    0.06    0.22
  C9                   CONDUIT     0.103     0  01:53      1.25    0.35    0.44
  C16                  CONDUIT     0.431     0  01:50      1.69    0.04    0.14
  C3                   CONDUIT     0.174     0  05:31      2.02    0.07    0.17
  C19                  CONDUIT     0.097     0  03:13      1.03    0.03    0.22
  C11                  CONDUIT     0.265     0  04:06      1.82    0.01    0.11
  C20                  CONDUIT     0.571     0  01:46      2.60    0.02    0.13
  C22                  CONDUIT     0.183     0  01:49      1.46    0.08    0.30
  C12                  CONDUIT     0.175     0  03:24      1.42    0.01    0.11
  C17                  CONDUIT     0.751     0  01:48      2.84    0.04    0.14
  C10                  CONDUIT     0.510     0  01:56      1.66    0.05    0.58
  C13                  CONDUIT     0.827     0  01:52      1.53    0.05    0.57
  C18                  CONDUIT     0.388     0  01:46      1.72    0.01    0.53
  C23                  CONDUIT     0.923     0  01:52      1.26    0.10    0.61
  C4                   CONDUIT     0.273     0  01:46      1.98    0.07    0.59
  C7                   CONDUIT     0.161     0  01:55      1.43    0.04    0.57
  C14                  CONDUIT     0.271     0  02:08      2.08    0.02    0.09
  C5                   CONDUIT     0.069     0  01:53      1.35    1.19    1.00
  C8                   CONDUIT     0.104     0  01:50      1.49    1.30    0.82
  C15                  CONDUIT     0.433     0  01:48      3.10    1.38    0.81
  C21                  CONDUIT     0.184     0  01:48      1.76    1.05    0.68
  V4                   ORIFICE     0.057     0  03:21                      1.00
  V5                   ORIFICE     0.038     0  03:44                      1.00
  V1                   ORIFICE     0.271     0  02:06                      1.00
  V6                   ORIFICE     0.175     0  03:07                      1.00
  V3                   ORIFICE     0.174     0  05:31                      1.00
  V2                   ORIFICE     0.097     0  03:11                      1.00
  
  
  ***************************
  Flow Classification Summary
  ***************************
  
  -------------------------------------------------------------------------------------
                      Adjusted    ---------- Fraction of Time in Flow Class ---------- 
                       /Actual         Up    Down  Sub   Sup   Up    Down  Norm  Inlet 
  Conduit               Length    Dry  Dry   Dry   Crit  Crit  Crit  Crit  Ltd   Ctrl  
  -------------------------------------------------------------------------------------
  C1                      1.00   0.00  0.00  0.00  0.92  0.08  0.00  0.00  0.95  0.00
  C6                      1.00   0.00  0.00  0.00  0.08  0.92  0.00  0.00  0.00  0.00
  C2                      1.00   0.00  0.00  0.00  0.14  0.86  0.00  0.00  0.94  0.00
  C9                      1.00   0.00  0.00  0.00  1.00  0.00  0.00  0.00  1.00  0.00
  C16                     1.00   0.00  0.00  0.00  0.59  0.41  0.00  0.00  0.48  0.00
  C3                      1.00   0.00  0.00  0.00  0.05  0.94  0.00  0.00  0.07  0.00
  C19                     1.00   0.00  0.00  0.00  1.00  0.00  0.00  0.00  1.00  0.00
  C11                     1.00   0.00  0.00  0.00  0.20  0.80  0.00  0.00  1.00  0.00
  C20                     1.00   0.00  0.00  0.00  0.65  0.35  0.00  0.00  0.98  0.00
  C22                     1.00   0.00  0.00  0.00  0.88  0.12  0.00  0.00  1.00  0.00
  C12                     1.00   0.00  0.00  0.00  0.58  0.42  0.00  0.00  0.92  0.00
  C17                     1.00   0.00  0.00  0.00  0.53  0.47  0.00  0.00  0.95  0.00
  C10                     1.00   0.00  0.00  0.00  0.94  0.06  0.00  0.00  0.97  0.00
  C13                     1.00   0.00  0.00  0.00  0.83  0.17  0.00  0.00  0.54  0.00
  C18                     1.00   0.00  0.00  0.00  0.82  0.18  0.00  0.00  0.97  0.00
  C23                     1.00   0.00  0.00  0.00  0.90  0.10  0.00  0.00  0.94  0.00
  C4                      1.00   0.00  0.00  0.00  0.96  0.04  0.00  0.00  0.98  0.00
  C7                      1.00   0.00  0.00  0.00  0.91  0.09  0.00  0.00  0.96  0.00
  C14                     1.00   0.00  0.00  0.00  0.00  0.99  0.00  0.00  0.00  0.00
  C5                      1.00   0.00  0.00  0.00  0.91  0.09  0.00  0.00  0.92  0.00
  C8                      1.00   0.00  0.00  0.00  0.09  0.91  0.00  0.00  0.00  0.00
  C15                     1.00   0.00  0.00  0.00  0.00  1.00  0.00  0.00  0.00  0.00
  C21                     1.00   0.00  0.00  0.00  0.01  0.99  0.00  0.00  0.00  0.00
  
  
  *************************
  Conduit Surcharge Summary
  *************************
  
  ----------------------------------------------------------------------------
                                                           Hours        Hours 
                         --------- Hours Full --------   Above Full   Capacity
  Conduit                Both Ends  Upstream  Dnstream   Normal Flow   Limited
  ----------------------------------------------------------------------------
  C6                          0.01      0.40      0.01      0.26         0.01
  C10                         0.01      0.01      5.58      0.01         0.01
  C13                         0.01      0.01      5.68      0.01         0.01
  C18                         0.01      0.01      1.83      0.01         0.01
  C23                         0.01      0.01      6.16      0.01         0.01
  C4                          0.01      0.01      6.20      0.01         0.01
  C7                          0.01      0.01      4.86      0.01         0.01
  C5                          0.43      0.44      0.55      0.48         0.39
  C8                          0.01      0.49      0.01      0.50         0.01
  C15                         0.01      0.48      0.01      0.52         0.01
  C21                         0.01      0.24      0.01      0.19         0.01
  

  Analysis begun on:  Fri Sep  3 16:40:25 2021
  Analysis ended on:  Fri Sep  3 16:40:25 2021
  Total elapsed time: < 1 sec