
  EPA STORM WATER MANAGEMENT MODEL - VERSION 5.1 (Build 5.3.0.dev0)
  --------------------------------------------------------------

  
  *********************************************************
  NOTE: The summary statistics displayed in this report are
  based on results found at every computational time step,  
  not just on results from each reporting time step.
  *********************************************************
  
  ****************
  Analysis Options
  ****************
  Flow Units ............... CMS
  Process Models:
    Rainfall/Runoff ........ YES
    RDII ................... NO
    Snowmelt ............... NO
    Groundwater ............ NO
    Flow Routing ........... YES
    Ponding Allowed ........ YES
    Water Quality .......... NO
  Infiltration Method ...... HORTON
  Flow Routing Method ...... DYNWAVE
  Surcharge Method ......... EXTRAN
  Starting Date ............ 08/28/2015 08:00:00
  Ending Date .............. 08/28/2015 15:50:00
  Antecedent Dry Days ...... 0.0
  Report Time Step ......... 00:01:00
  Wet Time Step ............ 00:01:00
  Dry Time Step ............ 00:01:00
  Routing Time Step ........ 5.00 sec
  Variable Time Step ....... YES
  Maximum Trials ........... 8
  Number of Threads ........ 1
  Head Tolerance ........... 0.001500 m
  
  
  **************************        Volume         Depth
  Runoff Quantity Continuity     hectare-m            mm
  **************************     ---------       -------
  Total Precipitation ......         1.505         8.349
  Evaporation Loss .........         0.000         0.000
  Infiltration Loss ........         0.000         0.000
  Surface Runoff ...........         1.482         8.222
  Final Storage ............         0.023         0.128
  Continuity Error (%) .....        -0.009
  
  
  **************************        Volume        Volume
  Flow Routing Continuity        hectare-m      10^6 ltr
  **************************     ---------     ---------
  Dry Weather Inflow .......         0.396         3.955
  Wet Weather Inflow .......         1.482        14.815
  Groundwater Inflow .......         0.000         0.000
  RDII Inflow ..............         0.000         0.000
  External Inflow ..........         0.000         0.000
  External Outflow .........         0.625         6.252
  Flooding Loss ............         0.519         5.191
  Evaporation Loss .........         0.000         0.000
  Exfiltration Loss ........         0.000         0.000
  Initial Stored Volume ....         0.000         0.000
  Final Stored Volume ......         0.587         5.869
  Continuity Error (%) .....         7.770
  
  
  *************************
  Highest Continuity Errors
  *************************
  Node T5 (21.60%)
  Node T3 (16.69%)
  Node T1 (6.73%)
  Node T2 (6.20%)
  Node T6 (5.82%)
  
  
  ***************************
  Time-Step Critical Elements
  ***************************
  None
  
  
  ********************************
  Highest Flow Instability Indexes
  ********************************
  Link C13 (2)
  
  
  *************************
  Routing Time Step Summary
  *************************
  Minimum Time Step           :     4.63 sec
  Average Time Step           :     5.00 sec
  Maximum Time Step           :     5.00 sec
  Percent in Steady State     :     0.00
  Average Iterations per Step :     2.13
  Percent Not Converging      :     0.32
  
  
  ***************************
  Subcatchment Runoff Summary
  ***************************
  
  ------------------------------------------------------------------------------------------------------------------------------
                            Total      Total      Total      Total     Imperv       Perv      Total       Total     Peak  Runoff
                           Precip      Runon       Evap      Infil     Runoff     Runoff     Runoff      Runoff   Runoff   Coeff
  Subcatchment                 mm         mm         mm         mm         mm         mm         mm    10^6 ltr      CMS
  ------------------------------------------------------------------------------------------------------------------------------
  SC01                       8.35       0.00       0.00       0.00       8.26       0.00       8.26        2.73     0.59   0.990
  SC02                       8.35       0.00       0.00       0.00       8.26       0.00       8.26        1.88     0.39   0.989
  SC03                       8.35       0.00       0.00       0.00       8.28       0.00       8.28        1.49     0.35   0.992
  SC04                       8.35       0.00       0.00       0.00       8.16       0.00       8.16        0.56     0.09   0.977
  SC05                       8.35       0.00       0.00       0.00       8.26       0.00       8.26        1.29     0.27   0.989
  SC06                       8.35       0.00       0.00       0.00       8.11       0.00       8.11        2.64     0.39   0.971
  SC07                       8.35       0.00       0.00       0.00       8.16       0.00       8.16        0.39     0.06   0.977
  SC08                       8.35       0.00       0.00       0.00       8.23       0.00       8.23        2.31     0.44   0.986
  SC09                       8.35       0.00       0.00       0.00       8.21       0.00       8.21        0.57     0.10   0.983
  SC010                      8.35       0.00       0.00       0.00       8.24       0.00       8.24        0.97     0.19   0.987
  
  
  ******************
  Node Depth Summary
  ******************
  
  ---------------------------------------------------------------------------------
                                 Average  Maximum  Maximum  Time of Max    Reported
                                   Depth    Depth      HGL   Occurrence   Max Depth
  Node                 Type       Meters   Meters   Meters  days hr:min      Meters
  ---------------------------------------------------------------------------------
  J1                   JUNCTION     0.08     0.18    34.18     0  01:36        0.18
  J3                   JUNCTION     0.14     0.17    18.17     0  03:47        0.17
  CSO7                 JUNCTION     0.16     1.20    35.20     0  01:40        1.20
  J5                   JUNCTION     0.07     0.14    32.14     0  01:45        0.14
  CSO9                 JUNCTION     0.17     1.21    41.21     0  01:40        1.21
  J8                   JUNCTION     0.12     0.24    36.24     0  01:47        0.24
  CSO8                 JUNCTION     0.21     1.64    33.64     0  01:38        1.64
  J10                  JUNCTION     0.10     0.27    29.27     0  01:38        0.27
  J13                  JUNCTION     0.07     0.17    29.17     0  01:36        0.17
  J15                  JUNCTION     0.21     0.33    15.33     0  01:42        0.33
  J16                  JUNCTION     0.07     0.19    30.19     0  01:35        0.19
  CSO10                JUNCTION     0.14     0.89    30.89     0  01:33        0.82
  J12                  JUNCTION     0.43     0.67    26.67     0  05:20        0.67
  J4                   JUNCTION     0.16     1.19    34.19     0  01:40        0.76
  J6                   JUNCTION     0.09     0.11    25.11     0  03:29        0.11
  J2                   JUNCTION     0.07     0.08    25.08     0  03:42        0.08
  J19                  JUNCTION     0.15     0.17     8.17     0  01:59        0.17
  J9                   JUNCTION     0.13     0.16    29.16     0  03:37        0.16
  J14                  JUNCTION     0.15     0.18    20.18     0  06:01        0.18
  J17                  JUNCTION     0.10     0.13    20.13     0  03:18        0.13
  J7                   JUNCTION     0.09     0.21    39.21     0  01:43        0.21
  J11                  JUNCTION     0.11     0.28    31.28     0  01:40        0.28
  J18                  JUNCTION     0.06     0.16    29.16     0  01:39        0.16
  Out_to_WWTP          OUTFALL      0.15     0.17     6.17     0  01:58        0.17
  T5                   STORAGE      3.59     5.00    32.00     0  02:53        5.00
  T4                   STORAGE      1.74     3.29    30.29     0  03:27        3.29
  T6                   STORAGE      2.85     5.00    36.00     0  02:36        5.00
  T3                   STORAGE      3.31     4.68    26.68     0  05:16        4.68
  T2                   STORAGE      1.62     3.12    24.12     0  03:17        3.12
  T1                   STORAGE      3.96     5.00    15.00     0  01:58        5.00
  
  
  *******************
  Node Inflow Summary
  *******************
  
  -------------------------------------------------------------------------------------------------
                                  Maximum  Maximum                  Lateral       Total        Flow
                                  Lateral    Total  Time of Max      Inflow      Inflow     Balance
                                   Inflow   Inflow   Occurrence      Volume      Volume       Error
  Node                 Type           CMS      CMS  days hr:min    10^6 ltr    10^6 ltr     Percent
  -------------------------------------------------------------------------------------------------
  J1                   JUNCTION     0.287    0.287     0  01:35        1.85        1.85       0.005
  J3                   JUNCTION     0.000    0.285     0  03:46           0        6.01       0.780
  CSO7                 JUNCTION     0.071    0.071     0  01:44       0.678       0.678       0.068
  J5                   JUNCTION     0.094    0.164     0  01:44       0.691        1.36       0.060
  CSO9                 JUNCTION     0.107    0.107     0  01:40       0.763       0.763       0.049
  J8                   JUNCTION     0.418    0.523     0  01:46        3.58        4.34       0.061
  CSO8                 JUNCTION     0.450    0.450     0  01:38         2.6         2.6       0.014
  J10                  JUNCTION     0.364    0.789     0  01:36        1.88        4.47       0.044
  J13                  JUNCTION     0.408    0.408     0  01:35        2.35        2.35      -0.304
  J15                  JUNCTION     0.000    0.957     0  01:38           0        12.4       0.882
  J16                  JUNCTION     0.603    0.603     0  01:35        3.28        3.28      -0.038
  CSO10                JUNCTION     0.192    0.192     0  01:38        1.11        1.11       0.018
  J12                  JUNCTION     0.000    0.863     0  01:39           0        7.86       3.936
  J4                   JUNCTION     0.000    0.070     0  01:45           0       0.677       0.490
  J6                   JUNCTION     0.000    0.065     0  03:27           0        1.21       0.366
  J2                   JUNCTION     0.000    0.039     0  02:53           0       0.873       0.604
  J19                  JUNCTION     0.000    0.271     0  01:58           0        6.26       0.202
  J9                   JUNCTION     0.000    0.175     0  02:36           0         3.4       0.553
  J14                  JUNCTION     0.000    0.183     0  05:16           0        3.95       0.248
  J17                  JUNCTION     0.000    0.111     0  03:17           0        2.05       0.444
  J7                   JUNCTION     0.000    0.107     0  01:40           0       0.762       0.417
  J11                  JUNCTION     0.000    0.450     0  01:38           0         2.6       0.248
  J18                  JUNCTION     0.000    0.192     0  01:38           0        1.11       0.040
  Out_to_WWTP          OUTFALL      0.000    0.271     0  02:00           0        6.25       0.000
  T5                   STORAGE      0.000    0.287     0  01:36           0        1.85      27.551
  T4                   STORAGE      0.000    0.164     0  01:45           0        1.36       5.582
  T6                   STORAGE      0.000    0.522     0  01:47           0        4.34       6.179
  T3                   STORAGE      0.000    0.856     0  01:42           0        7.57      20.035
  T2                   STORAGE      0.000    0.408     0  01:36           0        2.35       6.612
  T1                   STORAGE      0.000    0.946     0  01:42           0        12.3       7.217
  
  
  **********************
  Node Surcharge Summary
  **********************
  
  Surcharging occurs when water rises above the top of the highest conduit.
  ---------------------------------------------------------------------
                                               Max. Height   Min. Depth
                                   Hours       Above Crown    Below Rim
  Node                 Type      Surcharged         Meters       Meters
  ---------------------------------------------------------------------
  CSO7                 JUNCTION        0.64          0.945        0.000
  CSO9                 JUNCTION        0.67          0.896        0.786
  CSO8                 JUNCTION        0.65          1.186        0.361
  CSO10                JUNCTION        0.33          0.447        0.113
  J4                   JUNCTION        0.61          0.893        0.807
  
  
  *********************
  Node Flooding Summary
  *********************
  
  Flooding refers to all water that overflows a node, whether it ponds or not.
  --------------------------------------------------------------------------
                                                             Total   Maximum
                                 Maximum   Time of Max       Flood    Ponded
                        Hours       Rate    Occurrence      Volume     Depth
  Node                 Flooded       CMS   days hr:min    10^6 ltr    Meters
  --------------------------------------------------------------------------
  CSO7                    0.14     0.005      0  01:40       0.000     0.000
  T5                      0.95     0.146      0  03:01       0.178     0.000
  T6                      1.01     0.247      0  03:01       0.525     0.000
  T1                      5.86     0.591      0  01:58       4.488     0.000
  
  
  **********************
  Storage Volume Summary
  **********************
  
  --------------------------------------------------------------------------------------------------
                         Average     Avg  Evap Exfil       Maximum     Max    Time of Max    Maximum
                          Volume    Pcnt  Pcnt  Pcnt        Volume    Pcnt     Occurrence    Outflow
  Storage Unit           1000 m3    Full  Loss  Loss       1000 m3    Full    days hr:min        CMS
  --------------------------------------------------------------------------------------------------
  T5                       0.359      72     0     0         0.500     100       0  02:53      0.039
  T4                       0.174      35     0     0         0.329      66       0  03:27      0.065
  T6                       0.342      57     0     0         0.600     100       0  02:36      0.175
  T3                       1.723      66     0     0         2.433      94       0  05:16      0.221
  T2                       0.325      32     0     0         0.625      62       0  03:17      0.111
  T1                       0.555      79     0     0         0.700     100       0  01:58      0.271
  
  
  ***********************
  Outfall Loading Summary
  ***********************
  
  -----------------------------------------------------------
                         Flow       Avg       Max       Total
                         Freq      Flow      Flow      Volume
  Outfall Node           Pcnt       CMS       CMS    10^6 ltr
  -----------------------------------------------------------
  Out_to_WWTP           99.01     0.224     0.271       6.252
  -----------------------------------------------------------
  System                99.01     0.224     0.271       6.252
  
  
  ********************
  Link Flow Summary
  ********************
  
  -----------------------------------------------------------------------------
                                 Maximum  Time of Max   Maximum    Max/    Max/
                                  |Flow|   Occurrence   |Veloc|    Full    Full
  Link                 Type          CMS  days hr:min     m/sec    Flow   Depth
  -----------------------------------------------------------------------------
  C1                   CONDUIT     0.039     0  03:42      0.91    0.01    0.12
  C6                   CONDUIT     0.070     0  01:45      1.28    1.12    0.73
  C2                   CONDUIT     0.065     0  03:29      1.32    0.07    0.23
  C9                   CONDUIT     0.106     0  01:43      1.27    0.36    0.44
  C16                  CONDUIT     0.448     0  01:40      1.71    0.04    0.14
  C3                   CONDUIT     0.183     0  05:16      2.05    0.07    0.17
  C19                  CONDUIT     0.111     0  03:18      1.09    0.04    0.22
  C11                  CONDUIT     0.284     0  03:47      1.84    0.01    0.12
  C20                  CONDUIT     0.603     0  01:35      2.73    0.02    0.13
  C22                  CONDUIT     0.191     0  01:39      1.50    0.09    0.30
  C12                  CONDUIT     0.175     0  03:31      1.03    0.01    0.21
  C17                  CONDUIT     0.787     0  01:38      2.90    0.04    0.18
  C10                  CONDUIT     0.522     0  01:47      1.66    0.05    0.58
  C13                  CONDUIT     0.856     0  01:42      1.57    0.05    0.67
  C18                  CONDUIT     0.408     0  01:36      1.72    0.02    0.53
  C23                  CONDUIT     0.946     0  01:42      1.26    0.10    0.61
  C4                   CONDUIT     0.287     0  01:36      1.98    0.07    0.59
  C7                   CONDUIT     0.164     0  01:45      1.43    0.04    0.57
  C14                  CONDUIT     0.271     0  02:00      2.08    0.02    0.09
  C5                   CONDUIT     0.070     0  01:45      1.37    1.20    1.00
  C8                   CONDUIT     0.107     0  01:40      1.53    1.35    0.83
  C15                  CONDUIT     0.450     0  01:38      3.21    1.43    0.81
  C21                  CONDUIT     0.192     0  01:38      1.76    1.10    0.68
  V4                   ORIFICE     0.065     0  03:27                      1.00
  V5                   ORIFICE     0.039     0  02:53                      1.00
  V1                   ORIFICE     0.271     0  01:58                      1.00
  V6                   ORIFICE     0.175     0  02:36                      1.00
  V3                   ORIFICE     0.183     0  05:16                      1.00
  V2                   ORIFICE     0.111     0  03:17                      1.00
  
  
  ***************************
  Flow Classification Summary
  ***************************
  
  -------------------------------------------------------------------------------------
                      Adjusted    ---------- Fraction of Time in Flow Class ---------- 
                       /Actual         Up    Down  Sub   Sup   Up    Down  Norm  Inlet 
  Conduit               Length    Dry  Dry   Dry   Crit  Crit  Crit  Crit  Ltd   Ctrl  
  -------------------------------------------------------------------------------------
  C1                      1.00   0.00  0.00  0.00  0.92  0.08  0.00  0.00  0.95  0.00
  C6                      1.00   0.00  0.00  0.00  0.11  0.89  0.00  0.00  0.00  0.00
  C2                      1.00   0.00  0.00  0.00  0.06  0.94  0.00  0.00  0.94  0.00
  C9                      1.00   0.00  0.00  0.00  1.00  0.00  0.00  0.00  1.00  0.00
  C16                     1.00   0.00  0.00  0.00  0.56  0.44  0.00  0.00  0.45  0.00
  C3                      1.00   0.00  0.00  0.00  0.05  0.94  0.00  0.00  0.07  0.00
  C19                     1.00   0.00  0.00  0.00  1.00  0.00  0.00  0.00  1.00  0.00
  C11                     1.00   0.00  0.00  0.00  0.21  0.79  0.00  0.00  1.00  0.00
  C20                     1.00   0.00  0.00  0.00  0.64  0.36  0.00  0.00  0.98  0.00
  C22                     1.00   0.00  0.00  0.00  0.87  0.13  0.00  0.00  1.00  0.00
  C12                     1.00   0.00  0.00  0.00  0.94  0.06  0.00  0.00  1.00  0.00
  C17                     1.00   0.00  0.00  0.00  0.59  0.41  0.00  0.00  0.93  0.00
  C10                     1.00   0.00  0.00  0.00  0.94  0.06  0.00  0.00  0.97  0.00
  C13                     1.00   0.00  0.00  0.00  0.83  0.17  0.00  0.00  0.30  0.00
  C18                     1.00   0.00  0.00  0.00  0.83  0.17  0.00  0.00  0.97  0.00
  C23                     1.00   0.00  0.00  0.00  0.90  0.10  0.00  0.00  0.94  0.00
  C4                      1.00   0.00  0.00  0.00  0.96  0.04  0.00  0.00  0.98  0.00
  C7                      1.00   0.00  0.00  0.00  0.91  0.09  0.00  0.00  0.96  0.00
  C14                     1.00   0.00  0.00  0.00  0.00  0.99  0.00  0.00  0.00  0.00
  C5                      1.00   0.00  0.00  0.00  0.92  0.08  0.00  0.00  0.90  0.00
  C8                      1.00   0.00  0.00  0.00  0.16  0.84  0.00  0.00  0.00  0.00
  C15                     1.00   0.00  0.00  0.00  0.00  1.00  0.00  0.00  0.00  0.00
  C21                     1.00   0.00  0.00  0.00  0.01  0.99  0.00  0.00  0.00  0.00
  
  
  *************************
  Conduit Surcharge Summary
  *************************
  
  ----------------------------------------------------------------------------
                                                           Hours        Hours 
                         --------- Hours Full --------   Above Full   Capacity
  Conduit                Both Ends  Upstream  Dnstream   Normal Flow   Limited
  ----------------------------------------------------------------------------
  C6                          0.01      0.61      0.01      0.43         0.01
  C10                         0.01      0.01      5.89      0.01         0.01
  C13                         0.01      0.01      5.82      0.01         0.01
  C18                         0.01      0.01      3.15      0.01         0.01
  C23                         0.01      0.01      6.28      0.01         0.01
  C4                          0.01      0.01      6.32      0.01         0.01
  C7                          0.01      0.01      5.74      0.01         0.01
  C5                          0.62      0.64      0.77      0.66         0.57
  C8                          0.01      0.67      0.01      0.66         0.01
  C15                         0.01      0.65      0.01      0.69         0.01
  C21                         0.01      0.33      0.01      0.28         0.01
  

  Analysis begun on:  Fri Sep  3 16:41:33 2021
  Analysis ended on:  Fri Sep  3 16:41:33 2021
  Total elapsed time: < 1 sec