
  EPA STORM WATER MANAGEMENT MODEL - VERSION 5.1 (Build 5.3.0.dev0)
  --------------------------------------------------------------

  
  *********************************************************
  NOTE: The summary statistics displayed in this report are
  based on results found at every computational time step,  
  not just on results from each reporting time step.
  *********************************************************
  
  ****************
  Analysis Options
  ****************
  Flow Units ............... CMS
  Process Models:
    Rainfall/Runoff ........ YES
    RDII ................... NO
    Snowmelt ............... NO
    Groundwater ............ NO
    Flow Routing ........... YES
    Ponding Allowed ........ YES
    Water Quality .......... NO
  Infiltration Method ...... HORTON
  Flow Routing Method ...... DYNWAVE
  Surcharge Method ......... EXTRAN
  Starting Date ............ 08/28/2015 08:00:00
  Ending Date .............. 08/28/2015 15:50:00
  Antecedent Dry Days ...... 0.0
  Report Time Step ......... 00:01:00
  Wet Time Step ............ 00:01:00
  Dry Time Step ............ 00:01:00
  Routing Time Step ........ 5.00 sec
  Variable Time Step ....... YES
  Maximum Trials ........... 8
  Number of Threads ........ 1
  Head Tolerance ........... 0.001500 m
  
  
  **************************        Volume         Depth
  Runoff Quantity Continuity     hectare-m            mm
  **************************     ---------       -------
  Total Precipitation ......         1.456         8.080
  Evaporation Loss .........         0.000         0.000
  Infiltration Loss ........         0.000         0.000
  Surface Runoff ...........         1.432         7.948
  Final Storage ............         0.024         0.133
  Continuity Error (%) .....        -0.009
  
  
  **************************        Volume        Volume
  Flow Routing Continuity        hectare-m      10^6 ltr
  **************************     ---------     ---------
  Dry Weather Inflow .......         0.396         3.955
  Wet Weather Inflow .......         1.432        14.322
  Groundwater Inflow .......         0.000         0.000
  RDII Inflow ..............         0.000         0.000
  External Inflow ..........         0.000         0.000
  External Outflow .........         0.594         5.935
  Flooding Loss ............         0.503         5.030
  Evaporation Loss .........         0.000         0.000
  Exfiltration Loss ........         0.000         0.000
  Initial Stored Volume ....         0.000         0.000
  Final Stored Volume ......         0.586         5.864
  Continuity Error (%) .....         7.919
  
  
  *************************
  Highest Continuity Errors
  *************************
  Node T5 (22.20%)
  Node T3 (17.13%)
  Node T2 (7.18%)
  Node T1 (7.13%)
  Node T6 (6.52%)
  
  
  ***************************
  Time-Step Critical Elements
  ***************************
  None
  
  
  ********************************
  Highest Flow Instability Indexes
  ********************************
  Link C13 (1)
  
  
  *************************
  Routing Time Step Summary
  *************************
  Minimum Time Step           :     4.50 sec
  Average Time Step           :     5.00 sec
  Maximum Time Step           :     5.00 sec
  Percent in Steady State     :     0.00
  Average Iterations per Step :     2.18
  Percent Not Converging      :     0.60
  
  
  ***************************
  Subcatchment Runoff Summary
  ***************************
  
  ------------------------------------------------------------------------------------------------------------------------------
                            Total      Total      Total      Total     Imperv       Perv      Total       Total     Peak  Runoff
                           Precip      Runon       Evap      Infil     Runoff     Runoff     Runoff      Runoff   Runoff   Coeff
  Subcatchment                 mm         mm         mm         mm         mm         mm         mm    10^6 ltr      CMS
  ------------------------------------------------------------------------------------------------------------------------------
  SC01                       8.08       0.00       0.00       0.00       7.99       0.00       7.99        2.64     0.84   0.989
  SC02                       8.08       0.00       0.00       0.00       7.99       0.00       7.99        1.82     0.57   0.989
  SC03                       8.08       0.00       0.00       0.00       8.01       0.00       8.01        1.44     0.49   0.991
  SC04                       8.08       0.00       0.00       0.00       7.88       0.00       7.88        0.54     0.14   0.976
  SC05                       8.08       0.00       0.00       0.00       7.99       0.00       7.99        1.25     0.39   0.989
  SC06                       8.08       0.00       0.00       0.00       7.83       0.00       7.83        2.55     0.64   0.969
  SC07                       8.08       0.00       0.00       0.00       7.88       0.00       7.88        0.37     0.10   0.976
  SC08                       8.08       0.00       0.00       0.00       7.96       0.00       7.96        2.23     0.66   0.985
  SC09                       8.08       0.00       0.00       0.00       7.94       0.00       7.94        0.55     0.16   0.982
  SC010                      8.08       0.00       0.00       0.00       7.97       0.00       7.97        0.94     0.28   0.986
  
  
  ******************
  Node Depth Summary
  ******************
  
  ---------------------------------------------------------------------------------
                                 Average  Maximum  Maximum  Time of Max    Reported
                                   Depth    Depth      HGL   Occurrence   Max Depth
  Node                 Type       Meters   Meters   Meters  days hr:min      Meters
  ---------------------------------------------------------------------------------
  J1                   JUNCTION     0.08     0.21    34.21     0  03:01        0.21
  J3                   JUNCTION     0.13     0.17    18.17     0  04:05        0.17
  CSO7                 JUNCTION     0.17     1.20    35.20     0  02:45        1.20
  J5                   JUNCTION     0.07     0.16    32.16     0  03:01        0.16
  CSO9                 JUNCTION     0.20     2.00    42.00     0  02:53        2.00
  J8                   JUNCTION     0.12     0.29    36.29     0  03:01        0.29
  CSO8                 JUNCTION     0.22     2.00    34.00     0  02:51        2.00
  J10                  JUNCTION     0.10     0.30    29.30     0  03:01        0.30
  J13                  JUNCTION     0.07     0.20    29.20     0  03:01        0.20
  J15                  JUNCTION     0.20     0.39    15.39     0  03:02        0.39
  J16                  JUNCTION     0.07     0.22    30.22     0  03:01        0.22
  CSO10                JUNCTION     0.15     1.00    31.00     0  02:51        1.00
  J12                  JUNCTION     0.35     0.57    26.57     0  05:40        0.57
  J4                   JUNCTION     0.16     1.21    34.21     0  02:45        0.76
  J6                   JUNCTION     0.08     0.11    25.11     0  03:43        0.11
  J2                   JUNCTION     0.06     0.08    25.08     0  03:55        0.08
  J19                  JUNCTION     0.14     0.17     8.17     0  02:41        0.17
  J9                   JUNCTION     0.13     0.16    29.16     0  03:52        0.16
  J14                  JUNCTION     0.14     0.18    20.18     0  06:21        0.18
  J17                  JUNCTION     0.10     0.13    20.13     0  03:27        0.13
  J7                   JUNCTION     0.09     0.23    39.23     0  03:04        0.23
  J11                  JUNCTION     0.11     0.30    31.30     0  02:55        0.30
  J18                  JUNCTION     0.06     0.16    29.16     0  03:05        0.16
  Out_to_WWTP          OUTFALL      0.14     0.17     6.17     0  02:40        0.17
  T5                   STORAGE      3.30     5.00    32.00     0  03:05        5.00
  T4                   STORAGE      1.59     3.27    30.27     0  03:42        3.27
  T6                   STORAGE      2.60     5.00    36.00     0  03:03        5.00
  T3                   STORAGE      2.99     4.57    26.57     0  05:35        4.57
  T2                   STORAGE      1.52     3.24    24.24     0  03:25        3.24
  T1                   STORAGE      3.67     5.00    15.00     0  02:39        5.00
  
  
  *******************
  Node Inflow Summary
  *******************
  
  -------------------------------------------------------------------------------------------------
                                  Maximum  Maximum                  Lateral       Total        Flow
                                  Lateral    Total  Time of Max      Inflow      Inflow     Balance
                                   Inflow   Inflow   Occurrence      Volume      Volume       Error
  Node                 Type           CMS      CMS  days hr:min    10^6 ltr    10^6 ltr     Percent
  -------------------------------------------------------------------------------------------------
  J1                   JUNCTION     0.413    0.413     0  03:01        1.81        1.81       0.026
  J3                   JUNCTION     0.000    0.282     0  04:04           0        5.61       0.831
  CSO7                 JUNCTION     0.111    0.111     0  03:01       0.665       0.665       0.069
  J5                   JUNCTION     0.150    0.221     0  03:01       0.671        1.31       0.095
  CSO9                 JUNCTION     0.164    0.164     0  03:01       0.744       0.744       0.063
  J8                   JUNCTION     0.679    0.806     0  03:01        3.49        4.22       0.099
  CSO8                 JUNCTION     0.672    0.672     0  03:01        2.52        2.52       0.024
  J10                  JUNCTION     0.502    0.990     0  03:01        1.83        4.27       0.070
  J13                  JUNCTION     0.589    0.589     0  03:01        2.28        2.28      -0.207
  J15                  JUNCTION     0.000    1.387     0  03:01           0        11.7       0.944
  J16                  JUNCTION     0.862    0.862     0  03:01        3.19        3.19      -0.026
  CSO10                JUNCTION     0.286    0.286     0  03:01        1.07        1.07       0.034
  J12                  JUNCTION     0.000    1.141     0  03:01           0        7.45       3.550
  J4                   JUNCTION     0.000    0.071     0  03:01           0       0.638       0.528
  J6                   JUNCTION     0.000    0.064     0  03:42           0        1.13       0.404
  J2                   JUNCTION     0.000    0.039     0  03:05           0       0.824       0.645
  J19                  JUNCTION     0.000    0.271     0  02:39           0        5.95       0.213
  J9                   JUNCTION     0.000    0.175     0  03:03           0         3.2       0.611
  J14                  JUNCTION     0.000    0.181     0  05:35           0        3.68       0.265
  J17                  JUNCTION     0.000    0.113     0  03:25           0        1.94       0.477
  J7                   JUNCTION     0.000    0.127     0  03:04           0       0.732       0.430
  J11                  JUNCTION     0.000    0.486     0  02:55           0        2.45       0.255
  J18                  JUNCTION     0.000    0.202     0  03:05           0        1.04       0.056
  Out_to_WWTP          OUTFALL      0.000    0.271     0  02:41           0        5.94       0.000
  T5                   STORAGE      0.000    0.409     0  03:01           0        1.81      28.527
  T4                   STORAGE      0.000    0.218     0  03:01           0         1.3       6.321
  T6                   STORAGE      0.000    0.791     0  03:01           0        4.21       6.972
  T3                   STORAGE      0.000    1.113     0  03:02           0         7.2      20.671
  T2                   STORAGE      0.000    0.583     0  03:01           0        2.29       7.739
  T1                   STORAGE      0.000    1.326     0  03:02           0        11.6       7.679
  
  
  **********************
  Node Surcharge Summary
  **********************
  
  Surcharging occurs when water rises above the top of the highest conduit.
  ---------------------------------------------------------------------
                                               Max. Height   Min. Depth
                                   Hours       Above Crown    Below Rim
  Node                 Type      Surcharged         Meters       Meters
  ---------------------------------------------------------------------
  CSO7                 JUNCTION        0.61          0.945        0.000
  CSO9                 JUNCTION        0.63          1.682        0.000
  CSO8                 JUNCTION        0.57          1.547        0.000
  CSO10                JUNCTION        0.33          0.560        0.000
  J4                   JUNCTION        0.57          0.912        0.788
  
  
  *********************
  Node Flooding Summary
  *********************
  
  Flooding refers to all water that overflows a node, whether it ponds or not.
  --------------------------------------------------------------------------
                                                             Total   Maximum
                                 Maximum   Time of Max       Flood    Ponded
                        Hours       Rate    Occurrence      Volume     Depth
  Node                 Flooded       CMS   days hr:min    10^6 ltr    Meters
  --------------------------------------------------------------------------
  CSO7                    0.43     0.040      0  03:01       0.026     0.000
  CSO9                    0.19     0.037      0  03:01       0.012     0.000
  CSO8                    0.22     0.186      0  03:01       0.068     0.000
  CSO10                   0.23     0.083      0  03:01       0.032     0.000
  T5                      0.99     0.253      0  03:05       0.180     0.000
  T6                      0.81     0.590      0  03:03       0.562     0.000
  T1                      5.17     1.056      0  03:02       4.151     0.000
  
  
  **********************
  Storage Volume Summary
  **********************
  
  --------------------------------------------------------------------------------------------------
                         Average     Avg  Evap Exfil       Maximum     Max    Time of Max    Maximum
                          Volume    Pcnt  Pcnt  Pcnt        Volume    Pcnt     Occurrence    Outflow
  Storage Unit           1000 m3    Full  Loss  Loss       1000 m3    Full    days hr:min        CMS
  --------------------------------------------------------------------------------------------------
  T5                       0.330      66     0     0         0.500     100       0  03:05      0.039
  T4                       0.159      32     0     0         0.327      65       0  03:42      0.064
  T6                       0.312      52     0     0         0.600     100       0  03:03      0.175
  T3                       1.554      60     0     0         2.377      91       0  05:35      0.181
  T2                       0.304      30     0     0         0.649      65       0  03:25      0.113
  T1                       0.514      73     0     0         0.700     100       0  02:39      0.271
  
  
  ***********************
  Outfall Loading Summary
  ***********************
  
  -----------------------------------------------------------
                         Flow       Avg       Max       Total
                         Freq      Flow      Flow      Volume
  Outfall Node           Pcnt       CMS       CMS    10^6 ltr
  -----------------------------------------------------------
  Out_to_WWTP           99.01     0.213     0.271       5.935
  -----------------------------------------------------------
  System                99.01     0.213     0.271       5.935
  
  
  ********************
  Link Flow Summary
  ********************
  
  -----------------------------------------------------------------------------
                                 Maximum  Time of Max   Maximum    Max/    Max/
                                  |Flow|   Occurrence   |Veloc|    Full    Full
  Link                 Type          CMS  days hr:min     m/sec    Flow   Depth
  -----------------------------------------------------------------------------
  C1                   CONDUIT     0.039     0  03:56      0.91    0.01    0.12
  C6                   CONDUIT     0.071     0  03:01      1.29    1.13    0.76
  C2                   CONDUIT     0.064     0  03:43      1.32    0.07    0.23
  C9                   CONDUIT     0.127     0  03:04      1.28    0.43    0.52
  C16                  CONDUIT     0.489     0  02:59      1.77    0.05    0.15
  C3                   CONDUIT     0.181     0  05:36      2.04    0.07    0.17
  C19                  CONDUIT     0.113     0  03:27      1.11    0.04    0.26
  C11                  CONDUIT     0.282     0  04:05      1.84    0.01    0.13
  C20                  CONDUIT     0.853     0  03:01      2.82    0.03    0.15
  C22                  CONDUIT     0.202     0  03:05      1.46    0.09    0.34
  C12                  CONDUIT     0.175     0  03:52      1.09    0.01    0.18
  C17                  CONDUIT     0.976     0  03:01      2.99    0.05    0.16
  C10                  CONDUIT     0.791     0  03:01      1.66    0.08    0.60
  C13                  CONDUIT     1.113     0  03:02      1.53    0.07    0.64
  C18                  CONDUIT     0.583     0  03:01      1.72    0.02    0.55
  C23                  CONDUIT     1.326     0  03:02      1.26    0.15    0.63
  C4                   CONDUIT     0.409     0  03:01      1.98    0.10    0.61
  C7                   CONDUIT     0.218     0  03:01      1.43    0.05    0.58
  C14                  CONDUIT     0.271     0  02:41      2.08    0.02    0.09
  C5                   CONDUIT     0.071     0  03:01      1.39    1.22    1.00
  C8                   CONDUIT     0.127     0  03:04      1.75    1.60    0.86
  C15                  CONDUIT     0.486     0  02:55      3.42    1.55    0.83
  C21                  CONDUIT     0.202     0  03:05      1.83    1.16    0.69
  V4                   ORIFICE     0.064     0  03:42                      1.00
  V5                   ORIFICE     0.039     0  03:05                      1.00
  V1                   ORIFICE     0.271     0  02:39                      1.00
  V6                   ORIFICE     0.175     0  03:03                      1.00
  V3                   ORIFICE     0.181     0  05:35                      1.00
  V2                   ORIFICE     0.113     0  03:25                      1.00
  
  
  ***************************
  Flow Classification Summary
  ***************************
  
  -------------------------------------------------------------------------------------
                      Adjusted    ---------- Fraction of Time in Flow Class ---------- 
                       /Actual         Up    Down  Sub   Sup   Up    Down  Norm  Inlet 
  Conduit               Length    Dry  Dry   Dry   Crit  Crit  Crit  Crit  Ltd   Ctrl  
  -------------------------------------------------------------------------------------
  C1                      1.00   0.00  0.00  0.00  0.92  0.08  0.00  0.00  0.95  0.00
  C6                      1.00   0.00  0.00  0.00  0.10  0.90  0.00  0.00  0.00  0.00
  C2                      1.00   0.00  0.00  0.00  0.03  0.96  0.00  0.00  0.94  0.00
  C9                      1.00   0.00  0.00  0.00  1.00  0.00  0.00  0.00  1.00  0.00
  C16                     1.00   0.00  0.00  0.00  0.55  0.45  0.00  0.00  0.38  0.00
  C3                      1.00   0.00  0.00  0.00  0.05  0.94  0.00  0.00  0.07  0.00
  C19                     1.00   0.00  0.00  0.00  0.96  0.04  0.00  0.00  1.00  0.00
  C11                     1.00   0.00  0.00  0.00  0.31  0.69  0.00  0.00  1.00  0.00
  C20                     1.00   0.00  0.00  0.00  0.62  0.38  0.00  0.00  0.98  0.00
  C22                     1.00   0.00  0.00  0.00  0.90  0.10  0.00  0.00  1.00  0.00
  C12                     1.00   0.00  0.00  0.00  0.93  0.07  0.00  0.00  1.00  0.00
  C17                     1.00   0.00  0.00  0.00  0.56  0.44  0.00  0.00  0.97  0.00
  C10                     1.00   0.00  0.00  0.00  0.94  0.06  0.00  0.00  0.97  0.00
  C13                     1.00   0.00  0.00  0.00  0.86  0.14  0.00  0.00  0.34  0.00
  C18                     1.00   0.00  0.00  0.00  0.82  0.18  0.00  0.00  0.97  0.00
  C23                     1.00   0.00  0.00  0.00  0.90  0.10  0.00  0.00  0.94  0.00
  C4                      1.00   0.00  0.00  0.00  0.96  0.04  0.00  0.00  0.98  0.00
  C7                      1.00   0.00  0.00  0.00  0.91  0.09  0.00  0.00  0.96  0.00
  C14                     1.00   0.00  0.00  0.00  0.00  0.99  0.00  0.00  0.00  0.00
  C5                      1.00   0.00  0.00  0.00  0.89  0.11  0.00  0.00  0.90  0.00
  C8                      1.00   0.00  0.00  0.00  0.12  0.88  0.00  0.00  0.00  0.00
  C15                     1.00   0.00  0.00  0.00  0.00  1.00  0.00  0.00  0.00  0.00
  C21                     1.00   0.00  0.00  0.00  0.00  1.00  0.00  0.00  0.00  0.00
  
  
  *************************
  Conduit Surcharge Summary
  *************************
  
  ----------------------------------------------------------------------------
                                                           Hours        Hours 
                         --------- Hours Full --------   Above Full   Capacity
  Conduit                Both Ends  Upstream  Dnstream   Normal Flow   Limited
  ----------------------------------------------------------------------------
  C6                          0.01      0.57      0.01      0.47         0.01
  C10                         0.01      0.01      5.50      0.01         0.01
  C13                         0.01      0.01      5.13      0.01         0.01
  C18                         0.01      0.01      2.69      0.01         0.01
  C23                         0.01      0.01      5.90      0.01         0.01
  C4                          0.01      0.01      5.92      0.01         0.01
  C7                          0.01      0.01      5.27      0.01         0.01
  C5                          0.61      0.61      0.72      0.68         0.58
  C8                          0.01      0.63      0.01      0.66         0.01
  C15                         0.01      0.57      0.01      0.65         0.01
  C21                         0.01      0.33      0.01      0.34         0.01
  

  Analysis begun on:  Fri Sep  3 16:44:08 2021
  Analysis ended on:  Fri Sep  3 16:44:08 2021
  Total elapsed time: < 1 sec