
  EPA STORM WATER MANAGEMENT MODEL - VERSION 5.1 (Build 5.3.0.dev0)
  --------------------------------------------------------------

  
  *********************************************************
  NOTE: The summary statistics displayed in this report are
  based on results found at every computational time step,  
  not just on results from each reporting time step.
  *********************************************************
  
  ****************
  Analysis Options
  ****************
  Flow Units ............... CMS
  Process Models:
    Rainfall/Runoff ........ YES
    RDII ................... NO
    Snowmelt ............... NO
    Groundwater ............ NO
    Flow Routing ........... YES
    Ponding Allowed ........ YES
    Water Quality .......... NO
  Infiltration Method ...... HORTON
  Flow Routing Method ...... DYNWAVE
  Surcharge Method ......... EXTRAN
  Starting Date ............ 08/28/2015 08:00:00
  Ending Date .............. 08/28/2015 15:50:00
  Antecedent Dry Days ...... 0.0
  Report Time Step ......... 00:01:00
  Wet Time Step ............ 00:01:00
  Dry Time Step ............ 00:01:00
  Routing Time Step ........ 5.00 sec
  Variable Time Step ....... YES
  Maximum Trials ........... 8
  Number of Threads ........ 1
  Head Tolerance ........... 0.001500 m
  
  
  **************************        Volume         Depth
  Runoff Quantity Continuity     hectare-m            mm
  **************************     ---------       -------
  Total Precipitation ......         1.924        10.677
  Evaporation Loss .........         0.000         0.000
  Infiltration Loss ........         0.000         0.000
  Surface Runoff ...........         1.901        10.550
  Final Storage ............         0.023         0.128
  Continuity Error (%) .....        -0.007
  
  
  **************************        Volume        Volume
  Flow Routing Continuity        hectare-m      10^6 ltr
  **************************     ---------     ---------
  Dry Weather Inflow .......         0.396         3.955
  Wet Weather Inflow .......         1.901        19.011
  Groundwater Inflow .......         0.000         0.000
  RDII Inflow ..............         0.000         0.000
  External Inflow ..........         0.000         0.000
  External Outflow .........         0.621         6.213
  Flooding Loss ............         0.864         8.642
  Evaporation Loss .........         0.000         0.000
  Exfiltration Loss ........         0.000         0.000
  Initial Stored Volume ....         0.000         0.000
  Final Stored Volume ......         0.659         6.594
  Continuity Error (%) .....         6.606
  
  
  *************************
  Highest Continuity Errors
  *************************
  Node T5 (17.90%)
  Node T3 (16.50%)
  Node T2 (8.51%)
  Node J12 (7.04%)
  Node T4 (6.03%)
  
  
  ***************************
  Time-Step Critical Elements
  ***************************
  None
  
  
  ********************************
  Highest Flow Instability Indexes
  ********************************
  All links are stable.
  
  
  *************************
  Routing Time Step Summary
  *************************
  Minimum Time Step           :     4.50 sec
  Average Time Step           :     5.00 sec
  Maximum Time Step           :     5.00 sec
  Percent in Steady State     :     0.00
  Average Iterations per Step :     2.18
  Percent Not Converging      :     0.30
  
  
  ***************************
  Subcatchment Runoff Summary
  ***************************
  
  ------------------------------------------------------------------------------------------------------------------------------
                            Total      Total      Total      Total     Imperv       Perv      Total       Total     Peak  Runoff
                           Precip      Runon       Evap      Infil     Runoff     Runoff     Runoff      Runoff   Runoff   Coeff
  Subcatchment                 mm         mm         mm         mm         mm         mm         mm    10^6 ltr      CMS
  ------------------------------------------------------------------------------------------------------------------------------
  SC01                      10.68       0.00       0.00       0.00      10.59       0.00      10.59        3.50     0.86   0.992
  SC02                      10.68       0.00       0.00       0.00      10.59       0.00      10.59        2.41     0.58   0.992
  SC03                      10.68       0.00       0.00       0.00      10.61       0.00      10.61        1.91     0.50   0.994
  SC04                      10.68       0.00       0.00       0.00      10.49       0.00      10.49        0.72     0.14   0.982
  SC05                      10.68       0.00       0.00       0.00      10.59       0.00      10.59        1.65     0.40   0.992
  SC06                      10.68       0.00       0.00       0.00      10.44       0.00      10.44        3.40     0.63   0.977
  SC07                      10.68       0.00       0.00       0.00      10.49       0.00      10.49        0.50     0.10   0.982
  SC08                      10.68       0.00       0.00       0.00      10.56       0.00      10.56        2.96     0.67   0.989
  SC09                      10.68       0.00       0.00       0.00      10.54       0.00      10.54        0.73     0.16   0.987
  SC010                     10.68       0.00       0.00       0.00      10.57       0.00      10.57        1.24     0.28   0.990
  
  
  ******************
  Node Depth Summary
  ******************
  
  ---------------------------------------------------------------------------------
                                 Average  Maximum  Maximum  Time of Max    Reported
                                   Depth    Depth      HGL   Occurrence   Max Depth
  Node                 Type       Meters   Meters   Meters  days hr:min      Meters
  ---------------------------------------------------------------------------------
  J1                   JUNCTION     0.08     0.21    34.21     0  01:54        0.21
  J3                   JUNCTION     0.14     0.17    18.17     0  03:36        0.17
  CSO7                 JUNCTION     0.25     1.20    35.20     0  01:46        1.20
  J5                   JUNCTION     0.07     0.16    32.16     0  02:01        0.16
  CSO9                 JUNCTION     0.30     2.00    42.00     0  01:46        2.00
  J8                   JUNCTION     0.12     0.29    36.29     0  02:02        0.29
  CSO8                 JUNCTION     0.32     2.00    34.00     0  01:44        2.00
  J10                  JUNCTION     0.11     0.30    29.30     0  01:54        0.30
  J13                  JUNCTION     0.07     0.21    29.21     0  01:54        0.21
  J15                  JUNCTION     0.22     0.38    15.38     0  01:59        0.38
  J16                  JUNCTION     0.08     0.23    30.23     0  01:54        0.23
  CSO10                JUNCTION     0.19     1.00    31.00     0  01:42        1.00
  J12                  JUNCTION     0.67     1.01    27.01     0  03:57        1.01
  J4                   JUNCTION     0.20     1.50    34.50     0  01:46        0.75
  J6                   JUNCTION     0.09     0.12    25.12     0  03:24        0.12
  J2                   JUNCTION     0.07     0.08    25.08     0  03:07        0.08
  J19                  JUNCTION     0.15     0.17     8.17     0  01:59        0.17
  J9                   JUNCTION     0.13     0.16    29.16     0  03:25        0.16
  J14                  JUNCTION     0.15     0.19    20.19     0  06:06        0.19
  J17                  JUNCTION     0.11     0.14    20.14     0  03:13        0.14
  J7                   JUNCTION     0.09     0.23    39.23     0  02:17        0.23
  J11                  JUNCTION     0.11     0.30    31.30     0  02:18        0.30
  J18                  JUNCTION     0.06     0.16    29.16     0  02:18        0.16
  Out_to_WWTP          OUTFALL      0.15     0.17     6.17     0  01:59        0.17
  T5                   STORAGE      3.65     5.00    32.00     0  02:17        5.00
  T4                   STORAGE      2.21     4.27    31.27     0  03:23        4.27
  T6                   STORAGE      2.88     5.00    36.00     0  02:14        5.00
  T3                   STORAGE      3.60     5.00    27.00     0  03:41        5.00
  T2                   STORAGE      2.25     4.35    25.35     0  03:11        4.35
  T1                   STORAGE      3.93     5.00    15.00     0  01:58        5.00
  
  
  *******************
  Node Inflow Summary
  *******************
  
  -------------------------------------------------------------------------------------------------
                                  Maximum  Maximum                  Lateral       Total        Flow
                                  Lateral    Total  Time of Max      Inflow      Inflow     Balance
                                   Inflow   Inflow   Occurrence      Volume      Volume       Error
  Node                 Type           CMS      CMS  days hr:min    10^6 ltr    10^6 ltr     Percent
  -------------------------------------------------------------------------------------------------
  J1                   JUNCTION     0.416    0.416     0  01:54        2.21        2.21       0.009
  J3                   JUNCTION     0.000    0.302     0  03:34           0        6.32       0.769
  CSO7                 JUNCTION     0.110    0.110     0  02:00       0.789       0.789       0.059
  J5                   JUNCTION     0.149    0.220     0  02:00       0.851        1.56       0.060
  CSO9                 JUNCTION     0.164    0.164     0  01:57       0.923       0.923       0.034
  J8                   JUNCTION     0.669    0.796     0  02:01        4.34        5.22       0.059
  CSO8                 JUNCTION     0.683    0.683     0  01:56        3.25        3.25       0.013
  J10                  JUNCTION     0.508    0.994     0  01:53         2.3        5.31      -0.016
  J13                  JUNCTION     0.597    0.597     0  01:54        2.88        2.88      -0.239
  J15                  JUNCTION     0.000    1.314     0  01:56           0          14       0.825
  J16                  JUNCTION     0.875    0.875     0  01:54        4.05        4.05      -0.034
  CSO10                JUNCTION     0.289    0.289     0  01:55        1.38        1.38       0.013
  J12                  JUNCTION     0.000    1.101     0  01:55           0        8.71       7.570
  J4                   JUNCTION     0.000    0.078     0  01:46           0       0.716       0.455
  J6                   JUNCTION     0.000    0.074     0  03:23           0        1.35       0.368
  J2                   JUNCTION     0.000    0.039     0  02:17           0       0.878       0.600
  J19                  JUNCTION     0.000    0.271     0  01:58           0        6.23       0.203
  J9                   JUNCTION     0.000    0.175     0  02:14           0        3.41       0.526
  J14                  JUNCTION     0.000    0.190     0  03:41           0        4.11       0.244
  J17                  JUNCTION     0.000    0.131     0  03:11           0        2.39       0.443
  J7                   JUNCTION     0.000    0.127     0  02:17           0       0.881       0.356
  J11                  JUNCTION     0.000    0.486     0  02:18           0        3.02       0.211
  J18                  JUNCTION     0.000    0.202     0  02:18           0        1.28       0.028
  Out_to_WWTP          OUTFALL      0.000    0.271     0  02:00           0        6.21       0.000
  T5                   STORAGE      0.000    0.416     0  01:54           0        2.21      21.804
  T4                   STORAGE      0.000    0.220     0  02:01           0        1.56       6.415
  T6                   STORAGE      0.000    0.795     0  02:02           0        5.21       5.028
  T3                   STORAGE      0.000    1.093     0  01:57           0        8.09      19.757
  T2                   STORAGE      0.000    0.596     0  01:54           0        2.88       9.297
  T1                   STORAGE      0.000    1.301     0  01:59           0        13.9       6.342
  
  
  **********************
  Node Surcharge Summary
  **********************
  
  Surcharging occurs when water rises above the top of the highest conduit.
  ---------------------------------------------------------------------
                                               Max. Height   Min. Depth
                                   Hours       Above Crown    Below Rim
  Node                 Type      Surcharged         Meters       Meters
  ---------------------------------------------------------------------
  CSO7                 JUNCTION        1.35          0.945        0.000
  CSO9                 JUNCTION        1.21          1.682        0.000
  CSO8                 JUNCTION        1.11          1.547        0.000
  CSO10                JUNCTION        0.82          0.560        0.000
  J4                   JUNCTION        1.33          1.203        0.497
  
  
  *********************
  Node Flooding Summary
  *********************
  
  Flooding refers to all water that overflows a node, whether it ponds or not.
  --------------------------------------------------------------------------
                                                             Total   Maximum
                                 Maximum   Time of Max       Flood    Ponded
                        Hours       Rate    Occurrence      Volume     Depth
  Node                 Flooded       CMS   days hr:min    10^6 ltr    Meters
  --------------------------------------------------------------------------
  CSO7                    0.89     0.039      0  02:00       0.072     0.000
  CSO9                    0.52     0.037      0  01:57       0.042     0.000
  CSO8                    0.57     0.197      0  01:56       0.231     0.000
  CSO10                   0.58     0.087      0  01:55       0.104     0.000
  T5                      1.53     0.247      0  02:17       0.540     0.000
  T6                      1.40     0.577      0  02:14       1.393     0.000
  T3                      0.92     0.242      0  03:41       0.149     0.000
  T1                      5.86     1.030      0  01:59       6.111     0.000
  
  
  **********************
  Storage Volume Summary
  **********************
  
  --------------------------------------------------------------------------------------------------
                         Average     Avg  Evap Exfil       Maximum     Max    Time of Max    Maximum
                          Volume    Pcnt  Pcnt  Pcnt        Volume    Pcnt     Occurrence    Outflow
  Storage Unit           1000 m3    Full  Loss  Loss       1000 m3    Full    days hr:min        CMS
  --------------------------------------------------------------------------------------------------
  T5                       0.365      73     0     0         0.500     100       0  02:17      0.039
  T4                       0.221      44     0     0         0.427      85       0  03:23      0.074
  T6                       0.346      58     0     0         0.600     100       0  02:14      0.175
  T3                       1.874      72     0     0         2.600     100       0  03:41      0.229
  T2                       0.450      45     0     0         0.870      87       0  03:11      0.131
  T1                       0.550      79     0     0         0.700     100       0  01:58      0.271
  
  
  ***********************
  Outfall Loading Summary
  ***********************
  
  -----------------------------------------------------------
                         Flow       Avg       Max       Total
                         Freq      Flow      Flow      Volume
  Outfall Node           Pcnt       CMS       CMS    10^6 ltr
  -----------------------------------------------------------
  Out_to_WWTP           99.01     0.223     0.271       6.213
  -----------------------------------------------------------
  System                99.01     0.223     0.271       6.213
  
  
  ********************
  Link Flow Summary
  ********************
  
  -----------------------------------------------------------------------------
                                 Maximum  Time of Max   Maximum    Max/    Max/
                                  |Flow|   Occurrence   |Veloc|    Full    Full
  Link                 Type          CMS  days hr:min     m/sec    Flow   Depth
  -----------------------------------------------------------------------------
  C1                   CONDUIT     0.039     0  03:07      0.91    0.01    0.12
  C6                   CONDUIT     0.071     0  02:00      1.29    1.14    0.76
  C2                   CONDUIT     0.074     0  03:24      1.41    0.08    0.24
  C9                   CONDUIT     0.127     0  02:17      1.30    0.43    0.52
  C16                  CONDUIT     0.489     0  01:50      1.79    0.05    0.15
  C3                   CONDUIT     0.190     0  03:43      2.06    0.07    0.18
  C19                  CONDUIT     0.131     0  03:13      1.20    0.04    0.25
  C11                  CONDUIT     0.302     0  03:36      1.85    0.01    0.13
  C20                  CONDUIT     0.874     0  01:54      2.95    0.03    0.15
  C22                  CONDUIT     0.202     0  02:18      1.52    0.09    0.34
  C12                  CONDUIT     0.175     0  03:25      0.88    0.01    0.29
  C17                  CONDUIT     0.991     0  01:54      3.07    0.05    0.28
  C10                  CONDUIT     0.795     0  02:02      1.66    0.08    0.60
  C13                  CONDUIT     1.093     0  01:57      1.53    0.06    0.75
  C18                  CONDUIT     0.596     0  01:54      1.72    0.02    0.55
  C23                  CONDUIT     1.301     0  01:59      1.26    0.14    0.63
  C4                   CONDUIT     0.416     0  01:54      1.98    0.10    0.61
  C7                   CONDUIT     0.220     0  02:01      1.43    0.05    0.58
  C14                  CONDUIT     0.271     0  02:00      2.08    0.02    0.09
  C5                   CONDUIT     0.078     0  01:46      1.52    1.33    1.00
  C8                   CONDUIT     0.127     0  02:17      1.76    1.60    0.86
  C15                  CONDUIT     0.486     0  02:18      3.43    1.55    0.83
  C21                  CONDUIT     0.202     0  02:18      1.83    1.16    0.69
  V4                   ORIFICE     0.074     0  03:23                      1.00
  V5                   ORIFICE     0.039     0  02:17                      1.00
  V1                   ORIFICE     0.271     0  01:58                      1.00
  V6                   ORIFICE     0.175     0  02:14                      1.00
  V3                   ORIFICE     0.190     0  03:41                      1.00
  V2                   ORIFICE     0.131     0  03:11                      1.00
  
  
  ***************************
  Flow Classification Summary
  ***************************
  
  -------------------------------------------------------------------------------------
                      Adjusted    ---------- Fraction of Time in Flow Class ---------- 
                       /Actual         Up    Down  Sub   Sup   Up    Down  Norm  Inlet 
  Conduit               Length    Dry  Dry   Dry   Crit  Crit  Crit  Crit  Ltd   Ctrl  
  -------------------------------------------------------------------------------------
  C1                      1.00   0.00  0.00  0.00  0.92  0.08  0.00  0.00  0.95  0.00
  C6                      1.00   0.00  0.00  0.00  0.19  0.81  0.00  0.00  0.00  0.00
  C2                      1.00   0.00  0.00  0.00  0.01  0.99  0.00  0.00  0.94  0.00
  C9                      1.00   0.00  0.00  0.00  1.00  0.00  0.00  0.00  1.00  0.00
  C16                     1.00   0.00  0.00  0.00  0.57  0.43  0.00  0.00  0.48  0.00
  C3                      1.00   0.00  0.00  0.00  0.05  0.94  0.00  0.00  0.07  0.00
  C19                     1.00   0.00  0.00  0.00  0.71  0.29  0.00  0.00  1.00  0.00
  C11                     1.00   0.00  0.00  0.00  0.25  0.74  0.00  0.00  1.00  0.00
  C20                     1.00   0.00  0.00  0.00  0.64  0.36  0.00  0.00  0.98  0.00
  C22                     1.00   0.00  0.00  0.00  0.87  0.13  0.00  0.00  1.00  0.00
  C12                     1.00   0.00  0.00  0.00  0.94  0.06  0.00  0.00  1.00  0.00
  C17                     1.00   0.00  0.00  0.00  0.65  0.35  0.00  0.00  0.94  0.00
  C10                     1.00   0.00  0.00  0.00  0.94  0.06  0.00  0.00  0.97  0.00
  C13                     1.00   0.00  0.00  0.00  0.83  0.17  0.00  0.00  0.24  0.00
  C18                     1.00   0.00  0.00  0.00  0.83  0.17  0.00  0.00  0.97  0.00
  C23                     1.00   0.00  0.00  0.00  0.90  0.10  0.00  0.00  0.94  0.00
  C4                      1.00   0.00  0.00  0.00  0.96  0.04  0.00  0.00  0.98  0.00
  C7                      1.00   0.00  0.00  0.00  0.91  0.09  0.00  0.00  0.96  0.00
  C14                     1.00   0.00  0.00  0.00  0.00  0.99  0.00  0.00  0.00  0.00
  C5                      1.00   0.00  0.00  0.00  0.91  0.09  0.00  0.00  0.81  0.00
  C8                      1.00   0.00  0.00  0.00  0.20  0.80  0.00  0.00  0.00  0.00
  C15                     1.00   0.00  0.00  0.00  0.00  1.00  0.00  0.00  0.00  0.00
  C21                     1.00   0.00  0.00  0.00  0.01  0.99  0.00  0.00  0.00  0.00
  
  
  *************************
  Conduit Surcharge Summary
  *************************
  
  ----------------------------------------------------------------------------
                                                           Hours        Hours 
                         --------- Hours Full --------   Above Full   Capacity
  Conduit                Both Ends  Upstream  Dnstream   Normal Flow   Limited
  ----------------------------------------------------------------------------
  C6                          0.01      1.33      0.01      1.03         0.01
  C10                         0.01      0.01      5.82      0.01         0.01
  C13                         0.01      0.01      5.82      0.01         0.01
  C18                         0.01      0.01      4.43      0.01         0.01
  C23                         0.01      0.01      6.21      0.01         0.01
  C4                          0.01      0.01      6.25      0.01         0.01
  C7                          0.01      0.01      5.98      0.01         0.01
  C5                          1.33      1.35      1.43      1.38         1.30
  C8                          0.01      1.21      0.01      1.19         0.01
  C15                         0.01      1.11      0.01      1.17         0.01
  C21                         0.01      0.82      0.01      0.77         0.01
  

  Analysis begun on:  Fri Sep  3 16:44:47 2021
  Analysis ended on:  Fri Sep  3 16:44:47 2021
  Total elapsed time: < 1 sec