
  EPA STORM WATER MANAGEMENT MODEL - VERSION 5.1 (Build 5.3.0.dev0)
  --------------------------------------------------------------

  
  *********************************************************
  NOTE: The summary statistics displayed in this report are
  based on results found at every computational time step,  
  not just on results from each reporting time step.
  *********************************************************
  
  ****************
  Analysis Options
  ****************
  Flow Units ............... CMS
  Process Models:
    Rainfall/Runoff ........ YES
    RDII ................... NO
    Snowmelt ............... NO
    Groundwater ............ NO
    Flow Routing ........... YES
    Ponding Allowed ........ YES
    Water Quality .......... NO
  Infiltration Method ...... HORTON
  Flow Routing Method ...... DYNWAVE
  Surcharge Method ......... EXTRAN
  Starting Date ............ 08/28/2015 08:00:00
  Ending Date .............. 08/28/2015 15:50:00
  Antecedent Dry Days ...... 0.0
  Report Time Step ......... 00:01:00
  Wet Time Step ............ 00:01:00
  Dry Time Step ............ 00:01:00
  Routing Time Step ........ 5.00 sec
  Variable Time Step ....... YES
  Maximum Trials ........... 8
  Number of Threads ........ 1
  Head Tolerance ........... 0.001500 m
  
  
  **************************        Volume         Depth
  Runoff Quantity Continuity     hectare-m            mm
  **************************     ---------       -------
  Total Precipitation ......         1.398         7.757
  Evaporation Loss .........         0.000         0.000
  Infiltration Loss ........         0.000         0.000
  Surface Runoff ...........         1.374         7.625
  Final Storage ............         0.024         0.132
  Continuity Error (%) .....        -0.009
  
  
  **************************        Volume        Volume
  Flow Routing Continuity        hectare-m      10^6 ltr
  **************************     ---------     ---------
  Dry Weather Inflow .......         0.396         3.955
  Wet Weather Inflow .......         1.374        13.740
  Groundwater Inflow .......         0.000         0.000
  RDII Inflow ..............         0.000         0.000
  External Inflow ..........         0.000         0.000
  External Outflow .........         0.593         5.933
  Flooding Loss ............         0.459         4.589
  Evaporation Loss .........         0.000         0.000
  Exfiltration Loss ........         0.000         0.000
  Initial Stored Volume ....         0.000         0.000
  Final Stored Volume ......         0.573         5.735
  Continuity Error (%) .....         8.130
  
  
  *************************
  Highest Continuity Errors
  *************************
  Node T5 (22.88%)
  Node T3 (17.12%)
  Node T1 (7.29%)
  Node T2 (6.77%)
  Node T6 (6.66%)
  
  
  ***************************
  Time-Step Critical Elements
  ***************************
  None
  
  
  ********************************
  Highest Flow Instability Indexes
  ********************************
  Link C13 (1)
  
  
  *************************
  Routing Time Step Summary
  *************************
  Minimum Time Step           :     4.50 sec
  Average Time Step           :     5.00 sec
  Maximum Time Step           :     5.00 sec
  Percent in Steady State     :     0.00
  Average Iterations per Step :     2.17
  Percent Not Converging      :     0.60
  
  
  ***************************
  Subcatchment Runoff Summary
  ***************************
  
  ------------------------------------------------------------------------------------------------------------------------------
                            Total      Total      Total      Total     Imperv       Perv      Total       Total     Peak  Runoff
                           Precip      Runon       Evap      Infil     Runoff     Runoff     Runoff      Runoff   Runoff   Coeff
  Subcatchment                 mm         mm         mm         mm         mm         mm         mm    10^6 ltr      CMS
  ------------------------------------------------------------------------------------------------------------------------------
  SC01                       7.76       0.00       0.00       0.00       7.67       0.00       7.67        2.53     0.77   0.989
  SC02                       7.76       0.00       0.00       0.00       7.66       0.00       7.66        1.74     0.53   0.988
  SC03                       7.76       0.00       0.00       0.00       7.69       0.00       7.69        1.38     0.45   0.991
  SC04                       7.76       0.00       0.00       0.00       7.56       0.00       7.56        0.52     0.13   0.975
  SC05                       7.76       0.00       0.00       0.00       7.66       0.00       7.66        1.20     0.36   0.988
  SC06                       7.76       0.00       0.00       0.00       7.51       0.00       7.51        2.44     0.59   0.968
  SC07                       7.76       0.00       0.00       0.00       7.56       0.00       7.56        0.36     0.09   0.975
  SC08                       7.76       0.00       0.00       0.00       7.64       0.00       7.64        2.14     0.61   0.985
  SC09                       7.76       0.00       0.00       0.00       7.61       0.00       7.61        0.53     0.14   0.981
  SC010                      7.76       0.00       0.00       0.00       7.64       0.00       7.64        0.90     0.26   0.985
  
  
  ******************
  Node Depth Summary
  ******************
  
  ---------------------------------------------------------------------------------
                                 Average  Maximum  Maximum  Time of Max    Reported
                                   Depth    Depth      HGL   Occurrence   Max Depth
  Node                 Type       Meters   Meters   Meters  days hr:min      Meters
  ---------------------------------------------------------------------------------
  J1                   JUNCTION     0.08     0.20    34.20     0  03:01        0.20
  J3                   JUNCTION     0.13     0.16    18.16     0  04:01        0.16
  CSO7                 JUNCTION     0.16     1.20    35.20     0  02:46        1.20
  J5                   JUNCTION     0.07     0.15    32.15     0  03:01        0.15
  CSO9                 JUNCTION     0.19     2.00    42.00     0  02:56        2.00
  J8                   JUNCTION     0.11     0.28    36.28     0  03:01        0.28
  CSO8                 JUNCTION     0.21     2.00    34.00     0  02:54        2.00
  J10                  JUNCTION     0.10     0.29    29.29     0  03:01        0.29
  J13                  JUNCTION     0.07     0.20    29.20     0  03:01        0.19
  J15                  JUNCTION     0.20     0.38    15.38     0  03:02        0.38
  J16                  JUNCTION     0.07     0.22    30.22     0  03:01        0.21
  CSO10                JUNCTION     0.14     1.00    31.00     0  02:53        1.00
  J12                  JUNCTION     0.31     0.50    26.50     0  05:46        0.50
  J4                   JUNCTION     0.15     1.20    34.20     0  02:46        0.91
  J6                   JUNCTION     0.08     0.11    25.11     0  03:43        0.11
  J2                   JUNCTION     0.06     0.08    25.08     0  03:58        0.08
  J19                  JUNCTION     0.14     0.17     8.17     0  02:41        0.17
  J9                   JUNCTION     0.13     0.16    29.16     0  03:50        0.16
  J14                  JUNCTION     0.14     0.18    20.18     0  06:28        0.18
  J17                  JUNCTION     0.10     0.13    20.13     0  03:27        0.13
  J7                   JUNCTION     0.09     0.23    39.23     0  03:03        0.23
  J11                  JUNCTION     0.10     0.30    31.30     0  02:57        0.30
  J18                  JUNCTION     0.06     0.16    29.16     0  03:04        0.16
  Out_to_WWTP          OUTFALL      0.14     0.17     6.17     0  02:40        0.17
  T5                   STORAGE      3.29     5.00    32.00     0  03:08        5.00
  T4                   STORAGE      1.52     3.14    30.14     0  03:41        3.14
  T6                   STORAGE      2.58     5.00    36.00     0  03:05        5.00
  T3                   STORAGE      2.94     4.50    26.50     0  05:41        4.50
  T2                   STORAGE      1.44     3.08    24.08     0  03:25        3.08
  T1                   STORAGE      3.67     5.00    15.00     0  02:40        5.00
  
  
  *******************
  Node Inflow Summary
  *******************
  
  -------------------------------------------------------------------------------------------------
                                  Maximum  Maximum                  Lateral       Total        Flow
                                  Lateral    Total  Time of Max      Inflow      Inflow     Balance
                                   Inflow   Inflow   Occurrence      Volume      Volume       Error
  Node                 Type           CMS      CMS  days hr:min    10^6 ltr    10^6 ltr     Percent
  -------------------------------------------------------------------------------------------------
  J1                   JUNCTION     0.382    0.382     0  03:01        1.76        1.76       0.026
  J3                   JUNCTION     0.000    0.279     0  04:00           0        5.56       0.833
  CSO7                 JUNCTION     0.104    0.104     0  03:01        0.65        0.65       0.072
  J5                   JUNCTION     0.139    0.210     0  03:01       0.649        1.28       0.098
  CSO9                 JUNCTION     0.151    0.151     0  03:01       0.721       0.721       0.065
  J8                   JUNCTION     0.631    0.756     0  03:01        3.38         4.1       0.102
  CSO8                 JUNCTION     0.619    0.619     0  03:01        2.43        2.43       0.022
  J10                  JUNCTION     0.466    0.955     0  03:01        1.77        4.16       0.083
  J13                  JUNCTION     0.544    0.544     0  03:01        2.21        2.21      -0.213
  J15                  JUNCTION     0.000    1.311     0  03:01           0        11.5       0.953
  J16                  JUNCTION     0.797    0.797     0  03:01        3.09        3.09      -0.024
  CSO10                JUNCTION     0.263    0.263     0  03:01        1.04        1.04       0.035
  J12                  JUNCTION     0.000    1.096     0  03:01           0        7.32       2.645
  J4                   JUNCTION     0.000    0.071     0  03:01           0       0.631       0.531
  J6                   JUNCTION     0.000    0.063     0  03:41           0        1.11       0.403
  J2                   JUNCTION     0.000    0.039     0  03:08           0       0.823       0.645
  J19                  JUNCTION     0.000    0.271     0  02:40           0        5.95       0.213
  J9                   JUNCTION     0.000    0.175     0  03:05           0        3.19       0.619
  J14                  JUNCTION     0.000    0.180     0  05:41           0        3.65       0.266
  J17                  JUNCTION     0.000    0.110     0  03:25           0         1.9       0.476
  J7                   JUNCTION     0.000    0.127     0  03:03           0       0.716       0.440
  J11                  JUNCTION     0.000    0.486     0  02:58           0        2.39       0.260
  J18                  JUNCTION     0.000    0.202     0  03:04           0        1.02       0.059
  Out_to_WWTP          OUTFALL      0.000    0.271     0  02:42           0        5.93       0.000
  T5                   STORAGE      0.000    0.376     0  03:01           0        1.76      29.660
  T4                   STORAGE      0.000    0.206     0  03:01           0        1.28       6.149
  T6                   STORAGE      0.000    0.739     0  03:01           0        4.09       7.133
  T3                   STORAGE      0.000    1.066     0  03:02           0        7.13      20.657
  T2                   STORAGE      0.000    0.534     0  03:01           0        2.22       7.266
  T1                   STORAGE      0.000    1.250     0  03:02           0        11.4       7.861
  
  
  **********************
  Node Surcharge Summary
  **********************
  
  Surcharging occurs when water rises above the top of the highest conduit.
  ---------------------------------------------------------------------
                                               Max. Height   Min. Depth
                                   Hours       Above Crown    Below Rim
  Node                 Type      Surcharged         Meters       Meters
  ---------------------------------------------------------------------
  CSO7                 JUNCTION        0.56          0.945        0.000
  CSO9                 JUNCTION        0.58          1.682        0.000
  CSO8                 JUNCTION        0.52          1.547        0.000
  CSO10                JUNCTION        0.28          0.560        0.000
  J4                   JUNCTION        0.52          0.898        0.802
  
  
  *********************
  Node Flooding Summary
  *********************
  
  Flooding refers to all water that overflows a node, whether it ponds or not.
  --------------------------------------------------------------------------
                                                             Total   Maximum
                                 Maximum   Time of Max       Flood    Ponded
                        Hours       Rate    Occurrence      Volume     Depth
  Node                 Flooded       CMS   days hr:min    10^6 ltr    Meters
  --------------------------------------------------------------------------
  CSO7                    0.38     0.033      0  03:01       0.018     0.000
  CSO9                    0.13     0.024      0  03:01       0.005     0.000
  CSO8                    0.16     0.133      0  03:01       0.036     0.000
  CSO10                   0.18     0.061      0  03:01       0.018     0.000
  T5                      0.89     0.175      0  03:08       0.130     0.000
  T6                      0.76     0.504      0  03:05       0.456     0.000
  T1                      5.16     0.980      0  03:02       3.927     0.000
  
  
  **********************
  Storage Volume Summary
  **********************
  
  --------------------------------------------------------------------------------------------------
                         Average     Avg  Evap Exfil       Maximum     Max    Time of Max    Maximum
                          Volume    Pcnt  Pcnt  Pcnt        Volume    Pcnt     Occurrence    Outflow
  Storage Unit           1000 m3    Full  Loss  Loss       1000 m3    Full    days hr:min        CMS
  --------------------------------------------------------------------------------------------------
  T5                       0.329      66     0     0         0.500     100       0  03:08      0.039
  T4                       0.152      30     0     0         0.314      63       0  03:41      0.063
  T6                       0.310      52     0     0         0.600     100       0  03:05      0.175
  T3                       1.531      59     0     0         2.343      90       0  05:41      0.180
  T2                       0.289      29     0     0         0.616      62       0  03:25      0.110
  T1                       0.514      73     0     0         0.700     100       0  02:40      0.271
  
  
  ***********************
  Outfall Loading Summary
  ***********************
  
  -----------------------------------------------------------
                         Flow       Avg       Max       Total
                         Freq      Flow      Flow      Volume
  Outfall Node           Pcnt       CMS       CMS    10^6 ltr
  -----------------------------------------------------------
  Out_to_WWTP           99.01     0.213     0.271       5.933
  -----------------------------------------------------------
  System                99.01     0.213     0.271       5.933
  
  
  ********************
  Link Flow Summary
  ********************
  
  -----------------------------------------------------------------------------
                                 Maximum  Time of Max   Maximum    Max/    Max/
                                  |Flow|   Occurrence   |Veloc|    Full    Full
  Link                 Type          CMS  days hr:min     m/sec    Flow   Depth
  -----------------------------------------------------------------------------
  C1                   CONDUIT     0.039     0  03:58      0.91    0.01    0.12
  C6                   CONDUIT     0.071     0  03:01      1.29    1.13    0.76
  C2                   CONDUIT     0.063     0  03:43      1.30    0.07    0.23
  C9                   CONDUIT     0.127     0  03:03      1.28    0.43    0.51
  C16                  CONDUIT     0.489     0  03:01      1.76    0.05    0.15
  C3                   CONDUIT     0.180     0  05:42      2.03    0.07    0.17
  C19                  CONDUIT     0.110     0  03:27      1.09    0.04    0.25
  C11                  CONDUIT     0.279     0  04:01      1.83    0.01    0.13
  C20                  CONDUIT     0.781     0  03:01      2.72    0.02    0.15
  C22                  CONDUIT     0.202     0  03:04      1.45    0.09    0.34
  C12                  CONDUIT     0.175     0  03:50      1.17    0.01    0.16
  C17                  CONDUIT     0.933     0  03:01      2.95    0.05    0.16
  C10                  CONDUIT     0.739     0  03:01      1.66    0.08    0.59
  C13                  CONDUIT     1.066     0  03:02      1.53    0.06    0.63
  C18                  CONDUIT     0.534     0  03:01      1.72    0.02    0.55
  C23                  CONDUIT     1.250     0  03:02      1.26    0.14    0.63
  C4                   CONDUIT     0.376     0  03:01      1.98    0.09    0.60
  C7                   CONDUIT     0.206     0  03:01      1.43    0.05    0.58
  C14                  CONDUIT     0.271     0  02:42      2.08    0.02    0.09
  C5                   CONDUIT     0.071     0  03:01      1.39    1.22    1.00
  C8                   CONDUIT     0.127     0  03:03      1.75    1.60    0.86
  C15                  CONDUIT     0.486     0  02:58      3.42    1.55    0.83
  C21                  CONDUIT     0.202     0  03:04      1.83    1.16    0.69
  V4                   ORIFICE     0.063     0  03:41                      1.00
  V5                   ORIFICE     0.039     0  03:08                      1.00
  V1                   ORIFICE     0.271     0  02:40                      1.00
  V6                   ORIFICE     0.175     0  03:05                      1.00
  V3                   ORIFICE     0.180     0  05:41                      1.00
  V2                   ORIFICE     0.110     0  03:25                      1.00
  
  
  ***************************
  Flow Classification Summary
  ***************************
  
  -------------------------------------------------------------------------------------
                      Adjusted    ---------- Fraction of Time in Flow Class ---------- 
                       /Actual         Up    Down  Sub   Sup   Up    Down  Norm  Inlet 
  Conduit               Length    Dry  Dry   Dry   Crit  Crit  Crit  Crit  Ltd   Ctrl  
  -------------------------------------------------------------------------------------
  C1                      1.00   0.00  0.00  0.00  0.92  0.08  0.00  0.00  0.95  0.00
  C6                      1.00   0.00  0.00  0.00  0.10  0.90  0.00  0.00  0.00  0.00
  C2                      1.00   0.00  0.00  0.00  0.04  0.95  0.00  0.00  0.94  0.00
  C9                      1.00   0.00  0.00  0.00  1.00  0.00  0.00  0.00  1.00  0.00
  C16                     1.00   0.00  0.00  0.00  0.56  0.44  0.00  0.00  0.38  0.00
  C3                      1.00   0.00  0.00  0.00  0.05  0.94  0.00  0.00  0.07  0.00
  C19                     1.00   0.00  0.00  0.00  1.00  0.00  0.00  0.00  1.00  0.00
  C11                     1.00   0.00  0.00  0.00  0.30  0.69  0.00  0.00  1.00  0.00
  C20                     1.00   0.00  0.00  0.00  0.62  0.38  0.00  0.00  0.98  0.00
  C22                     1.00   0.00  0.00  0.00  0.90  0.10  0.00  0.00  1.00  0.00
  C12                     1.00   0.00  0.00  0.00  0.92  0.08  0.00  0.00  1.00  0.00
  C17                     1.00   0.00  0.00  0.00  0.55  0.45  0.00  0.00  0.97  0.00
  C10                     1.00   0.00  0.00  0.00  0.94  0.06  0.00  0.00  0.97  0.00
  C13                     1.00   0.00  0.00  0.00  0.86  0.14  0.00  0.00  0.35  0.00
  C18                     1.00   0.00  0.00  0.00  0.82  0.18  0.00  0.00  0.97  0.00
  C23                     1.00   0.00  0.00  0.00  0.90  0.10  0.00  0.00  0.94  0.00
  C4                      1.00   0.00  0.00  0.00  0.96  0.04  0.00  0.00  0.98  0.00
  C7                      1.00   0.00  0.00  0.00  0.91  0.09  0.00  0.00  0.96  0.00
  C14                     1.00   0.00  0.00  0.00  0.00  0.99  0.00  0.00  0.00  0.00
  C5                      1.00   0.00  0.00  0.00  0.89  0.11  0.00  0.00  0.91  0.00
  C8                      1.00   0.00  0.00  0.00  0.12  0.88  0.00  0.00  0.00  0.00
  C15                     1.00   0.00  0.00  0.00  0.00  1.00  0.00  0.00  0.00  0.00
  C21                     1.00   0.00  0.00  0.00  0.00  1.00  0.00  0.00  0.00  0.00
  
  
  *************************
  Conduit Surcharge Summary
  *************************
  
  ----------------------------------------------------------------------------
                                                           Hours        Hours 
                         --------- Hours Full --------   Above Full   Capacity
  Conduit                Both Ends  Upstream  Dnstream   Normal Flow   Limited
  ----------------------------------------------------------------------------
  C6                          0.01      0.52      0.01      0.42         0.01
  C10                         0.01      0.01      5.47      0.01         0.01
  C13                         0.01      0.01      5.12      0.01         0.01
  C18                         0.01      0.01      2.48      0.01         0.01
  C23                         0.01      0.01      5.90      0.01         0.01
  C4                          0.01      0.01      5.92      0.01         0.01
  C7                          0.01      0.01      5.15      0.01         0.01
  C5                          0.56      0.56      0.68      0.63         0.53
  C8                          0.01      0.58      0.01      0.61         0.01
  C15                         0.01      0.52      0.01      0.61         0.01
  C21                         0.01      0.28      0.01      0.29         0.01
  

  Analysis begun on:  Fri Sep  3 16:22:30 2021
  Analysis ended on:  Fri Sep  3 16:22:30 2021
  Total elapsed time: < 1 sec