
  EPA STORM WATER MANAGEMENT MODEL - VERSION 5.1 (Build 5.3.0.dev0)
  --------------------------------------------------------------

  
  *********************************************************
  NOTE: The summary statistics displayed in this report are
  based on results found at every computational time step,  
  not just on results from each reporting time step.
  *********************************************************
  
  ****************
  Analysis Options
  ****************
  Flow Units ............... CMS
  Process Models:
    Rainfall/Runoff ........ YES
    RDII ................... NO
    Snowmelt ............... NO
    Groundwater ............ NO
    Flow Routing ........... YES
    Ponding Allowed ........ YES
    Water Quality .......... NO
  Infiltration Method ...... HORTON
  Flow Routing Method ...... DYNWAVE
  Surcharge Method ......... EXTRAN
  Starting Date ............ 08/28/2015 08:00:00
  Ending Date .............. 08/28/2015 15:50:00
  Antecedent Dry Days ...... 0.0
  Report Time Step ......... 00:01:00
  Wet Time Step ............ 00:01:00
  Dry Time Step ............ 00:01:00
  Routing Time Step ........ 5.00 sec
  Variable Time Step ....... YES
  Maximum Trials ........... 8
  Number of Threads ........ 1
  Head Tolerance ........... 0.001500 m
  
  
  **************************        Volume         Depth
  Runoff Quantity Continuity     hectare-m            mm
  **************************     ---------       -------
  Total Precipitation ......         0.964         5.352
  Evaporation Loss .........         0.000         0.000
  Infiltration Loss ........         0.000         0.000
  Surface Runoff ...........         0.941         5.224
  Final Storage ............         0.023         0.128
  Continuity Error (%) .....        -0.008
  
  
  **************************        Volume        Volume
  Flow Routing Continuity        hectare-m      10^6 ltr
  **************************     ---------     ---------
  Dry Weather Inflow .......         0.396         3.955
  Wet Weather Inflow .......         0.941         9.413
  Groundwater Inflow .......         0.000         0.000
  RDII Inflow ..............         0.000         0.000
  External Inflow ..........         0.000         0.000
  External Outflow .........         0.585         5.845
  Flooding Loss ............         0.186         1.862
  Evaporation Loss .........         0.000         0.000
  Exfiltration Loss ........         0.000         0.000
  Initial Stored Volume ....         0.000         0.000
  Final Stored Volume ......         0.459         4.587
  Continuity Error (%) .....         8.033
  
  
  *************************
  Highest Continuity Errors
  *************************
  Node T5 (23.55%)
  Node T3 (16.13%)
  Node T1 (8.97%)
  Node T6 (6.58%)
  Node T4 (4.34%)
  
  
  ***************************
  Time-Step Critical Elements
  ***************************
  None
  
  
  ********************************
  Highest Flow Instability Indexes
  ********************************
  All links are stable.
  
  
  *************************
  Routing Time Step Summary
  *************************
  Minimum Time Step           :     4.50 sec
  Average Time Step           :     5.00 sec
  Maximum Time Step           :     5.00 sec
  Percent in Steady State     :     0.00
  Average Iterations per Step :     2.00
  Percent Not Converging      :     0.00
  
  
  ***************************
  Subcatchment Runoff Summary
  ***************************
  
  ------------------------------------------------------------------------------------------------------------------------------
                            Total      Total      Total      Total     Imperv       Perv      Total       Total     Peak  Runoff
                           Precip      Runon       Evap      Infil     Runoff     Runoff     Runoff      Runoff   Runoff   Coeff
  Subcatchment                 mm         mm         mm         mm         mm         mm         mm    10^6 ltr      CMS
  ------------------------------------------------------------------------------------------------------------------------------
  SC01                       5.35       0.00       0.00       0.00       5.27       0.00       5.27        1.74     0.39   0.984
  SC02                       5.35       0.00       0.00       0.00       5.26       0.00       5.26        1.20     0.26   0.983
  SC03                       5.35       0.00       0.00       0.00       5.28       0.00       5.28        0.95     0.22   0.987
  SC04                       5.35       0.00       0.00       0.00       5.16       0.00       5.16        0.36     0.07   0.965
  SC05                       5.35       0.00       0.00       0.00       5.26       0.00       5.26        0.82     0.18   0.983
  SC06                       5.35       0.00       0.00       0.00       5.11       0.00       5.11        1.66     0.32   0.955
  SC07                       5.35       0.00       0.00       0.00       5.16       0.00       5.16        0.25     0.05   0.965
  SC08                       5.35       0.00       0.00       0.00       5.24       0.00       5.24        1.47     0.31   0.978
  SC09                       5.35       0.00       0.00       0.00       5.21       0.00       5.21        0.36     0.07   0.974
  SC010                      5.35       0.00       0.00       0.00       5.24       0.00       5.24        0.62     0.13   0.979
  
  
  ******************
  Node Depth Summary
  ******************
  
  ---------------------------------------------------------------------------------
                                 Average  Maximum  Maximum  Time of Max    Reported
                                   Depth    Depth      HGL   Occurrence   Max Depth
  Node                 Type       Meters   Meters   Meters  days hr:min      Meters
  ---------------------------------------------------------------------------------
  J1                   JUNCTION     0.07     0.15    34.15     0  03:01        0.15
  J3                   JUNCTION     0.12     0.15    18.15     0  04:32        0.15
  CSO7                 JUNCTION     0.10     0.22    34.22     0  03:01        0.21
  J5                   JUNCTION     0.06     0.12    32.12     0  03:01        0.12
  CSO9                 JUNCTION     0.11     0.32    40.32     0  03:02        0.32
  J8                   JUNCTION     0.10     0.21    36.21     0  03:01        0.21
  CSO8                 JUNCTION     0.12     0.40    32.40     0  03:01        0.40
  J10                  JUNCTION     0.09     0.22    29.22     0  03:01        0.22
  J13                  JUNCTION     0.06     0.14    29.14     0  03:01        0.14
  J15                  JUNCTION     0.19     0.30    15.30     0  03:02        0.30
  J16                  JUNCTION     0.06     0.16    30.16     0  03:01        0.16
  CSO10                JUNCTION     0.11     0.32    30.32     0  03:01        0.32
  J12                  JUNCTION     0.15     0.27    26.27     0  03:03        0.27
  J4                   JUNCTION     0.12     0.25    33.25     0  03:03        0.25
  J6                   JUNCTION     0.08     0.10    25.10     0  03:41        0.10
  J2                   JUNCTION     0.06     0.07    25.07     0  04:13        0.07
  J19                  JUNCTION     0.14     0.17     8.17     0  02:55        0.17
  J9                   JUNCTION     0.12     0.16    29.16     0  03:45        0.16
  J14                  JUNCTION     0.14     0.17    20.17     0  06:09        0.17
  J17                  JUNCTION     0.09     0.12    20.12     0  03:26        0.12
  J7                   JUNCTION     0.08     0.18    39.18     0  03:03        0.18
  J11                  JUNCTION     0.09     0.24    31.24     0  03:02        0.24
  J18                  JUNCTION     0.05     0.13    29.13     0  03:02        0.13
  Out_to_WWTP          OUTFALL      0.14     0.17     6.17     0  02:54        0.17
  T5                   STORAGE      2.60     3.94    30.94     0  04:11        3.94
  T4                   STORAGE      1.01     2.05    29.05     0  03:40        2.05
  T6                   STORAGE      2.00     4.06    35.06     0  03:42        4.06
  T3                   STORAGE      2.25     3.51    25.51     0  05:53        3.51
  T2                   STORAGE      0.92     1.92    22.92     0  03:24        1.92
  T1                   STORAGE      3.59     5.00    15.00     0  02:53        5.00
  
  
  *******************
  Node Inflow Summary
  *******************
  
  -------------------------------------------------------------------------------------------------
                                  Maximum  Maximum                  Lateral       Total        Flow
                                  Lateral    Total  Time of Max      Inflow      Inflow     Balance
                                   Inflow   Inflow   Occurrence      Volume      Volume       Error
  Node                 Type           CMS      CMS  days hr:min    10^6 ltr    10^6 ltr     Percent
  -------------------------------------------------------------------------------------------------
  J1                   JUNCTION     0.204    0.204     0  03:01        1.38        1.38       0.041
  J3                   JUNCTION     0.000    0.239     0  04:30           0        4.83       0.862
  CSO7                 JUNCTION     0.060    0.060     0  03:01       0.536       0.536       0.088
  J5                   JUNCTION     0.076    0.132     0  03:01       0.484        1.02       0.126
  CSO9                 JUNCTION     0.083    0.083     0  03:01       0.556       0.556       0.080
  J8                   JUNCTION     0.355    0.432     0  03:01        2.61        3.16       0.135
  CSO8                 JUNCTION     0.323    0.323     0  03:01        1.76        1.76       0.031
  J10                  JUNCTION     0.235    0.544     0  03:01        1.34        3.09       0.166
  J13                  JUNCTION     0.283    0.283     0  03:01        1.66        1.66      -0.243
  J15                  JUNCTION     0.000    0.812     0  03:01           0        9.35       1.040
  J16                  JUNCTION     0.409    0.409     0  03:01        2.29        2.29       0.000
  CSO10                JUNCTION     0.138    0.138     0  03:01       0.755       0.755       0.056
  J12                  JUNCTION     0.000    0.668     0  03:01           0        5.88       0.493
  J4                   JUNCTION     0.000    0.060     0  03:01           0       0.535       0.701
  J6                   JUNCTION     0.000    0.051     0  03:40           0       0.913       0.413
  J2                   JUNCTION     0.000    0.035     0  04:11           0       0.735       0.663
  J19                  JUNCTION     0.000    0.271     0  02:54           0        5.86       0.216
  J9                   JUNCTION     0.000    0.158     0  03:42           0        2.81       0.689
  J14                  JUNCTION     0.000    0.159     0  05:53           0         3.2       0.275
  J17                  JUNCTION     0.000    0.086     0  03:24           0        1.52       0.463
  J7                   JUNCTION     0.000    0.080     0  03:01           0       0.555       0.576
  J11                  JUNCTION     0.000    0.321     0  03:01           0        1.76       0.340
  J18                  JUNCTION     0.000    0.136     0  03:01           0       0.754       0.107
  Out_to_WWTP          OUTFALL      0.000    0.271     0  02:55           0        5.85       0.000
  T5                   STORAGE      0.000    0.201     0  03:01           0        1.38      30.799
  T4                   STORAGE      0.000    0.130     0  03:01           0        1.01       4.539
  T6                   STORAGE      0.000    0.425     0  03:01           0        3.15       7.045
  T3                   STORAGE      0.000    0.654     0  03:03           0        5.85      19.230
  T2                   STORAGE      0.000    0.279     0  03:01           0        1.67       3.930
  T1                   STORAGE      0.000    0.788     0  03:02           0        9.25       9.858
  
  
  **********************
  Node Surcharge Summary
  **********************
  
  No nodes were surcharged.
  
  
  *********************
  Node Flooding Summary
  *********************
  
  Flooding refers to all water that overflows a node, whether it ponds or not.
  --------------------------------------------------------------------------
                                                             Total   Maximum
                                 Maximum   Time of Max       Flood    Ponded
                        Hours       Rate    Occurrence      Volume     Depth
  Node                 Flooded       CMS   days hr:min    10^6 ltr    Meters
  --------------------------------------------------------------------------
  T1                      4.94     0.517      0  03:02       1.862     0.000
  
  
  **********************
  Storage Volume Summary
  **********************
  
  --------------------------------------------------------------------------------------------------
                         Average     Avg  Evap Exfil       Maximum     Max    Time of Max    Maximum
                          Volume    Pcnt  Pcnt  Pcnt        Volume    Pcnt     Occurrence    Outflow
  Storage Unit           1000 m3    Full  Loss  Loss       1000 m3    Full    days hr:min        CMS
  --------------------------------------------------------------------------------------------------
  T5                       0.260      52     0     0         0.394      79       0  04:11      0.035
  T4                       0.101      20     0     0         0.205      41       0  03:40      0.051
  T6                       0.240      40     0     0         0.487      81       0  03:42      0.158
  T3                       1.170      45     0     0         1.825      70       0  05:53      0.159
  T2                       0.183      18     0     0         0.384      38       0  03:24      0.086
  T1                       0.502      72     0     0         0.700     100       0  02:53      0.271
  
  
  ***********************
  Outfall Loading Summary
  ***********************
  
  -----------------------------------------------------------
                         Flow       Avg       Max       Total
                         Freq      Flow      Flow      Volume
  Outfall Node           Pcnt       CMS       CMS    10^6 ltr
  -----------------------------------------------------------
  Out_to_WWTP           99.01     0.209     0.271       5.845
  -----------------------------------------------------------
  System                99.01     0.209     0.271       5.845
  
  
  ********************
  Link Flow Summary
  ********************
  
  -----------------------------------------------------------------------------
                                 Maximum  Time of Max   Maximum    Max/    Max/
                                  |Flow|   Occurrence   |Veloc|    Full    Full
  Link                 Type          CMS  days hr:min     m/sec    Flow   Depth
  -----------------------------------------------------------------------------
  C1                   CONDUIT     0.035     0  04:13      0.91    0.01    0.11
  C6                   CONDUIT     0.057     0  03:03      1.27    0.91    0.61
  C2                   CONDUIT     0.051     0  03:41      1.20    0.06    0.21
  C9                   CONDUIT     0.078     0  03:03      1.12    0.27    0.39
  C16                  CONDUIT     0.314     0  03:02      1.55    0.03    0.12
  C3                   CONDUIT     0.159     0  05:54      1.95    0.06    0.16
  C19                  CONDUIT     0.086     0  03:26      0.98    0.03    0.21
  C11                  CONDUIT     0.239     0  04:32      1.78    0.01    0.11
  C20                  CONDUIT     0.404     0  03:01      2.04    0.01    0.11
  C22                  CONDUIT     0.134     0  03:02      1.22    0.06    0.27
  C12                  CONDUIT     0.158     0  03:45      1.37    0.01    0.10
  C17                  CONDUIT     0.534     0  03:01      2.43    0.03    0.12
  C10                  CONDUIT     0.425     0  03:01      1.66    0.04    0.57
  C13                  CONDUIT     0.654     0  03:03      1.53    0.04    0.57
  C18                  CONDUIT     0.279     0  03:01      1.72    0.01    0.50
  C23                  CONDUIT     0.788     0  03:02      1.26    0.09    0.60
  C4                   CONDUIT     0.201     0  03:01      1.98    0.05    0.58
  C7                   CONDUIT     0.130     0  03:01      1.43    0.03    0.56
  C14                  CONDUIT     0.271     0  02:55      2.08    0.02    0.09
  C5                   CONDUIT     0.060     0  03:01      1.24    1.02    0.90
  C8                   CONDUIT     0.080     0  03:01      1.30    1.00    0.78
  C15                  CONDUIT     0.321     0  03:01      2.66    1.02    0.71
  C21                  CONDUIT     0.136     0  03:01      1.73    0.78    0.52
  V4                   ORIFICE     0.051     0  03:40                      1.00
  V5                   ORIFICE     0.035     0  04:11                      1.00
  V1                   ORIFICE     0.271     0  02:54                      1.00
  V6                   ORIFICE     0.158     0  03:42                      1.00
  V3                   ORIFICE     0.159     0  05:53                      1.00
  V2                   ORIFICE     0.086     0  03:24                      1.00
  
  
  ***************************
  Flow Classification Summary
  ***************************
  
  -------------------------------------------------------------------------------------
                      Adjusted    ---------- Fraction of Time in Flow Class ---------- 
                       /Actual         Up    Down  Sub   Sup   Up    Down  Norm  Inlet 
  Conduit               Length    Dry  Dry   Dry   Crit  Crit  Crit  Crit  Ltd   Ctrl  
  -------------------------------------------------------------------------------------
  C1                      1.00   0.00  0.00  0.00  0.92  0.08  0.00  0.00  0.95  0.00
  C6                      1.00   0.00  0.00  0.00  0.01  0.99  0.00  0.00  0.00  0.00
  C2                      1.00   0.00  0.00  0.00  0.12  0.87  0.00  0.00  0.94  0.00
  C9                      1.00   0.00  0.00  0.00  1.00  0.00  0.00  0.00  1.00  0.00
  C16                     1.00   0.00  0.00  0.00  0.58  0.42  0.00  0.00  0.47  0.00
  C3                      1.00   0.00  0.00  0.00  0.05  0.94  0.00  0.00  0.07  0.00
  C19                     1.00   0.00  0.00  0.00  1.00  0.00  0.00  0.00  1.00  0.00
  C11                     1.00   0.00  0.00  0.00  0.29  0.71  0.00  0.00  1.00  0.00
  C20                     1.00   0.00  0.00  0.00  0.63  0.37  0.00  0.00  0.98  0.00
  C22                     1.00   0.00  0.00  0.00  0.97  0.03  0.00  0.00  1.00  0.00
  C12                     1.00   0.00  0.00  0.00  0.36  0.64  0.00  0.00  0.59  0.00
  C17                     1.00   0.00  0.00  0.00  0.50  0.50  0.00  0.00  0.97  0.00
  C10                     1.00   0.00  0.00  0.00  0.94  0.06  0.00  0.00  0.97  0.00
  C13                     1.00   0.00  0.00  0.00  0.87  0.13  0.00  0.00  0.91  0.00
  C18                     1.00   0.00  0.00  0.00  0.81  0.19  0.00  0.00  0.97  0.00
  C23                     1.00   0.00  0.00  0.00  0.90  0.10  0.00  0.00  0.94  0.00
  C4                      1.00   0.00  0.00  0.00  0.96  0.04  0.00  0.00  0.98  0.00
  C7                      1.00   0.00  0.00  0.00  0.91  0.09  0.00  0.00  0.96  0.00
  C14                     1.00   0.00  0.00  0.00  0.00  0.99  0.00  0.00  0.00  0.00
  C5                      1.00   0.00  0.00  0.00  0.89  0.11  0.00  0.00  0.98  0.00
  C8                      1.00   0.00  0.00  0.00  0.05  0.95  0.00  0.00  0.00  0.00
  C15                     1.00   0.00  0.00  0.00  0.00  1.00  0.00  0.00  0.00  0.00
  C21                     1.00   0.00  0.00  0.00  0.00  1.00  0.00  0.00  0.00  0.00
  
  
  *************************
  Conduit Surcharge Summary
  *************************
  
  ----------------------------------------------------------------------------
                                                           Hours        Hours 
                         --------- Hours Full --------   Above Full   Capacity
  Conduit                Both Ends  Upstream  Dnstream   Normal Flow   Limited
  ----------------------------------------------------------------------------
  C10                         0.01      0.01      4.70      0.01         0.01
  C13                         0.01      0.01      4.90      0.01         0.01
  C23                         0.01      0.01      5.81      0.01         0.01
  C4                          0.01      0.01      5.82      0.01         0.01
  C7                          0.01      0.01      3.85      0.01         0.01
  C5                          0.01      0.01      0.01      0.04         0.01
  C8                          0.01      0.01      0.01      0.01         0.01
  C15                         0.01      0.01      0.01      0.03         0.01
  

  Analysis begun on:  Fri Sep  3 16:25:44 2021
  Analysis ended on:  Fri Sep  3 16:25:44 2021
  Total elapsed time: < 1 sec