
  EPA STORM WATER MANAGEMENT MODEL - VERSION 5.1 (Build 5.3.0.dev0)
  --------------------------------------------------------------

  
  *********************************************************
  NOTE: The summary statistics displayed in this report are
  based on results found at every computational time step,  
  not just on results from each reporting time step.
  *********************************************************
  
  ****************
  Analysis Options
  ****************
  Flow Units ............... CMS
  Process Models:
    Rainfall/Runoff ........ YES
    RDII ................... NO
    Snowmelt ............... NO
    Groundwater ............ NO
    Flow Routing ........... YES
    Ponding Allowed ........ YES
    Water Quality .......... NO
  Infiltration Method ...... HORTON
  Flow Routing Method ...... DYNWAVE
  Surcharge Method ......... EXTRAN
  Starting Date ............ 08/28/2015 08:00:00
  Ending Date .............. 08/28/2015 15:50:00
  Antecedent Dry Days ...... 0.0
  Report Time Step ......... 00:01:00
  Wet Time Step ............ 00:01:00
  Dry Time Step ............ 00:01:00
  Routing Time Step ........ 5.00 sec
  Variable Time Step ....... YES
  Maximum Trials ........... 8
  Number of Threads ........ 1
  Head Tolerance ........... 0.001500 m
  
  
  **************************        Volume         Depth
  Runoff Quantity Continuity     hectare-m            mm
  **************************     ---------       -------
  Total Precipitation ......         1.600         8.878
  Evaporation Loss .........         0.000         0.000
  Infiltration Loss ........         0.000         0.000
  Surface Runoff ...........         1.576         8.745
  Final Storage ............         0.024         0.133
  Continuity Error (%) .....        -0.009
  
  
  **************************        Volume        Volume
  Flow Routing Continuity        hectare-m      10^6 ltr
  **************************     ---------     ---------
  Dry Weather Inflow .......         0.396         3.955
  Wet Weather Inflow .......         1.576        15.759
  Groundwater Inflow .......         0.000         0.000
  RDII Inflow ..............         0.000         0.000
  External Inflow ..........         0.000         0.000
  External Outflow .........         0.599         5.988
  Flooding Loss ............         0.604         6.041
  Evaporation Loss .........         0.000         0.000
  Exfiltration Loss ........         0.000         0.000
  Initial Stored Volume ....         0.000         0.000
  Final Stored Volume ......         0.619         6.194
  Continuity Error (%) .....         7.564
  
  
  *************************
  Highest Continuity Errors
  *************************
  Node T5 (20.81%)
  Node T3 (16.93%)
  Node T2 (7.97%)
  Node T1 (6.78%)
  Node T4 (6.20%)
  
  
  ***************************
  Time-Step Critical Elements
  ***************************
  None
  
  
  ********************************
  Highest Flow Instability Indexes
  ********************************
  Link C13 (2)
  
  
  *************************
  Routing Time Step Summary
  *************************
  Minimum Time Step           :     4.50 sec
  Average Time Step           :     5.00 sec
  Maximum Time Step           :     5.00 sec
  Percent in Steady State     :     0.00
  Average Iterations per Step :     2.18
  Percent Not Converging      :     0.62
  
  
  ***************************
  Subcatchment Runoff Summary
  ***************************
  
  ------------------------------------------------------------------------------------------------------------------------------
                            Total      Total      Total      Total     Imperv       Perv      Total       Total     Peak  Runoff
                           Precip      Runon       Evap      Infil     Runoff     Runoff     Runoff      Runoff   Runoff   Coeff
  Subcatchment                 mm         mm         mm         mm         mm         mm         mm    10^6 ltr      CMS
  ------------------------------------------------------------------------------------------------------------------------------
  SC01                       8.88       0.00       0.00       0.00       8.79       0.00       8.79        2.90     0.90   0.990
  SC02                       8.88       0.00       0.00       0.00       8.79       0.00       8.79        2.00     0.61   0.990
  SC03                       8.88       0.00       0.00       0.00       8.81       0.00       8.81        1.59     0.52   0.992
  SC04                       8.88       0.00       0.00       0.00       8.68       0.00       8.68        0.60     0.16   0.978
  SC05                       8.88       0.00       0.00       0.00       8.78       0.00       8.78        1.37     0.42   0.990
  SC06                       8.88       0.00       0.00       0.00       8.62       0.00       8.62        2.81     0.69   0.971
  SC07                       8.88       0.00       0.00       0.00       8.68       0.00       8.68        0.41     0.11   0.978
  SC08                       8.88       0.00       0.00       0.00       8.76       0.00       8.76        2.45     0.71   0.987
  SC09                       8.88       0.00       0.00       0.00       8.73       0.00       8.73        0.60     0.17   0.984
  SC010                      8.88       0.00       0.00       0.00       8.76       0.00       8.76        1.03     0.30   0.987
  
  
  ******************
  Node Depth Summary
  ******************
  
  ---------------------------------------------------------------------------------
                                 Average  Maximum  Maximum  Time of Max    Reported
                                   Depth    Depth      HGL   Occurrence   Max Depth
  Node                 Type       Meters   Meters   Meters  days hr:min      Meters
  ---------------------------------------------------------------------------------
  J1                   JUNCTION     0.08     0.22    34.22     0  03:01        0.22
  J3                   JUNCTION     0.13     0.17    18.17     0  03:55        0.17
  CSO7                 JUNCTION     0.19     1.20    35.20     0  02:38        1.20
  J5                   JUNCTION     0.07     0.16    32.16     0  03:01        0.16
  CSO9                 JUNCTION     0.22     2.00    42.00     0  02:50        2.00
  J8                   JUNCTION     0.12     0.30    36.30     0  03:01        0.30
  CSO8                 JUNCTION     0.24     2.00    34.00     0  02:48        2.00
  J10                  JUNCTION     0.10     0.30    29.30     0  03:01        0.30
  J13                  JUNCTION     0.07     0.21    29.21     0  03:01        0.21
  J15                  JUNCTION     0.21     0.40    15.40     0  03:02        0.40
  J16                  JUNCTION     0.07     0.23    30.23     0  03:01        0.23
  CSO10                JUNCTION     0.16     1.00    31.00     0  02:48        1.00
  J12                  JUNCTION     0.46     0.75    26.75     0  05:26        0.75
  J4                   JUNCTION     0.17     1.15    34.15     0  02:38        0.81
  J6                   JUNCTION     0.09     0.11    25.11     0  03:42        0.11
  J2                   JUNCTION     0.07     0.08    25.08     0  03:51        0.08
  J19                  JUNCTION     0.14     0.17     8.17     0  02:34        0.17
  J9                   JUNCTION     0.13     0.16    29.16     0  03:53        0.16
  J14                  JUNCTION     0.15     0.18    20.18     0  06:16        0.18
  J17                  JUNCTION     0.10     0.14    20.14     0  03:26        0.14
  J7                   JUNCTION     0.09     0.23    39.23     0  03:05        0.23
  J11                  JUNCTION     0.11     0.30    31.30     0  02:52        0.30
  J18                  JUNCTION     0.06     0.16    29.16     0  03:05        0.16
  Out_to_WWTP          OUTFALL      0.14     0.17     6.17     0  02:33        0.17
  T5                   STORAGE      3.36     5.00    32.00     0  03:00        5.00
  T4                   STORAGE      1.76     3.60    30.60     0  03:41        3.60
  T6                   STORAGE      2.66     5.00    36.00     0  02:58        5.00
  T3                   STORAGE      3.14     4.75    26.75     0  05:31        4.75
  T2                   STORAGE      1.71     3.62    24.62     0  03:25        3.62
  T1                   STORAGE      3.72     5.00    15.00     0  02:33        5.00
  
  
  *******************
  Node Inflow Summary
  *******************
  
  -------------------------------------------------------------------------------------------------
                                  Maximum  Maximum                  Lateral       Total        Flow
                                  Lateral    Total  Time of Max      Inflow      Inflow     Balance
                                   Inflow   Inflow   Occurrence      Volume      Volume       Error
  Node                 Type           CMS      CMS  days hr:min    10^6 ltr    10^6 ltr     Percent
  -------------------------------------------------------------------------------------------------
  J1                   JUNCTION     0.440    0.440     0  03:01        1.93        1.93       0.021
  J3                   JUNCTION     0.000    0.289     0  03:53           0        5.79       0.820
  CSO7                 JUNCTION     0.119    0.119     0  03:01       0.703       0.703       0.064
  J5                   JUNCTION     0.161    0.233     0  03:01       0.726        1.39       0.086
  CSO9                 JUNCTION     0.175    0.175     0  03:01       0.799       0.799       0.061
  J8                   JUNCTION     0.733    0.860     0  03:01        3.75        4.52       0.089
  CSO8                 JUNCTION     0.719    0.719     0  03:01        2.74        2.74       0.019
  J10                  JUNCTION     0.537    1.023     0  03:01        1.97        4.61       0.033
  J13                  JUNCTION     0.629    0.629     0  03:01        2.47        2.47      -0.202
  J15                  JUNCTION     0.000    1.460     0  03:01           0        12.4       0.914
  J16                  JUNCTION     0.921    0.921     0  03:01        3.45        3.45      -0.028
  CSO10                JUNCTION     0.306    0.306     0  03:01        1.17        1.17       0.031
  J12                  JUNCTION     0.000    1.174     0  03:01           0        7.94       5.475
  J4                   JUNCTION     0.000    0.072     0  03:01           0       0.666       0.511
  J6                   JUNCTION     0.000    0.068     0  03:41           0         1.2       0.401
  J2                   JUNCTION     0.000    0.039     0  03:00           0       0.833       0.638
  J19                  JUNCTION     0.000    0.271     0  02:33           0           6       0.211
  J9                   JUNCTION     0.000    0.175     0  02:58           0        3.25       0.584
  J14                  JUNCTION     0.000    0.185     0  05:31           0        3.78       0.261
  J17                  JUNCTION     0.000    0.119     0  03:25           0        2.07       0.473
  J7                   JUNCTION     0.000    0.127     0  03:05           0        0.78       0.403
  J11                  JUNCTION     0.000    0.486     0  02:52           0        2.64       0.238
  J18                  JUNCTION     0.000    0.202     0  03:05           0        1.12       0.047
  Out_to_WWTP          OUTFALL      0.000    0.271     0  02:35           0        5.99       0.000
  T5                   STORAGE      0.000    0.433     0  03:01           0        1.93      26.286
  T4                   STORAGE      0.000    0.229     0  03:01           0        1.39       6.609
  T6                   STORAGE      0.000    0.841     0  03:01           0        4.52       6.526
  T3                   STORAGE      0.000    1.146     0  03:02           0        7.53      20.377
  T2                   STORAGE      0.000    0.618     0  03:01           0        2.47       8.664
  T1                   STORAGE      0.000    1.392     0  03:02           0        12.3       7.268
  
  
  **********************
  Node Surcharge Summary
  **********************
  
  Surcharging occurs when water rises above the top of the highest conduit.
  ---------------------------------------------------------------------
                                               Max. Height   Min. Depth
                                   Hours       Above Crown    Below Rim
  Node                 Type      Surcharged         Meters       Meters
  ---------------------------------------------------------------------
  CSO7                 JUNCTION        0.74          0.945        0.000
  CSO9                 JUNCTION        0.77          1.682        0.000
  CSO8                 JUNCTION        0.70          1.547        0.000
  CSO10                JUNCTION        0.42          0.560        0.000
  J4                   JUNCTION        0.70          0.846        0.854
  
  
  *********************
  Node Flooding Summary
  *********************
  
  Flooding refers to all water that overflows a node, whether it ponds or not.
  --------------------------------------------------------------------------
                                                             Total   Maximum
                                 Maximum   Time of Max       Flood    Ponded
                        Hours       Rate    Occurrence      Volume     Depth
  Node                 Flooded       CMS   days hr:min    10^6 ltr    Meters
  --------------------------------------------------------------------------
  CSO7                    0.55     0.048      0  03:01       0.037     0.000
  CSO9                    0.25     0.048      0  03:01       0.018     0.000
  CSO8                    0.28     0.233      0  03:01       0.101     0.000
  CSO10                   0.30     0.103      0  03:01       0.046     0.000
  T5                      1.10     0.394      0  03:01       0.294     0.000
  T6                      0.92     0.666      0  03:01       0.815     0.000
  T1                      5.28     1.122      0  03:02       4.730     0.000
  
  
  **********************
  Storage Volume Summary
  **********************
  
  --------------------------------------------------------------------------------------------------
                         Average     Avg  Evap Exfil       Maximum     Max    Time of Max    Maximum
                          Volume    Pcnt  Pcnt  Pcnt        Volume    Pcnt     Occurrence    Outflow
  Storage Unit           1000 m3    Full  Loss  Loss       1000 m3    Full    days hr:min        CMS
  --------------------------------------------------------------------------------------------------
  T5                       0.336      67     0     0         0.500     100       0  03:00      0.039
  T4                       0.176      35     0     0         0.360      72       0  03:41      0.068
  T6                       0.320      53     0     0         0.600     100       0  02:58      0.175
  T3                       1.635      63     0     0         2.472      95       0  05:31      0.299
  T2                       0.342      34     0     0         0.724      72       0  03:25      0.119
  T1                       0.521      74     0     0         0.700     100       0  02:33      0.271
  
  
  ***********************
  Outfall Loading Summary
  ***********************
  
  -----------------------------------------------------------
                         Flow       Avg       Max       Total
                         Freq      Flow      Flow      Volume
  Outfall Node           Pcnt       CMS       CMS    10^6 ltr
  -----------------------------------------------------------
  Out_to_WWTP           99.01     0.214     0.271       5.988
  -----------------------------------------------------------
  System                99.01     0.214     0.271       5.988
  
  
  ********************
  Link Flow Summary
  ********************
  
  -----------------------------------------------------------------------------
                                 Maximum  Time of Max   Maximum    Max/    Max/
                                  |Flow|   Occurrence   |Veloc|    Full    Full
  Link                 Type          CMS  days hr:min     m/sec    Flow   Depth
  -----------------------------------------------------------------------------
  C1                   CONDUIT     0.039     0  03:51      0.91    0.01    0.12
  C6                   CONDUIT     0.072     0  03:01      1.29    1.14    0.77
  C2                   CONDUIT     0.068     0  03:42      1.35    0.08    0.23
  C9                   CONDUIT     0.127     0  03:05      1.28    0.43    0.53
  C16                  CONDUIT     0.488     0  02:58      1.78    0.05    0.15
  C3                   CONDUIT     0.185     0  05:32      2.05    0.07    0.17
  C19                  CONDUIT     0.119     0  03:26      1.14    0.04    0.26
  C11                  CONDUIT     0.289     0  03:55      1.84    0.01    0.14
  C20                  CONDUIT     0.904     0  03:01      2.88    0.03    0.16
  C22                  CONDUIT     0.202     0  03:06      1.45    0.09    0.35
  C12                  CONDUIT     0.175     0  03:53      0.90    0.01    0.23
  C17                  CONDUIT     1.000     0  03:01      3.00    0.05    0.20
  C10                  CONDUIT     0.841     0  03:01      1.66    0.09    0.60
  C13                  CONDUIT     1.146     0  03:02      1.53    0.07    0.69
  C18                  CONDUIT     0.618     0  03:01      1.72    0.02    0.55
  C23                  CONDUIT     1.392     0  03:02      1.26    0.15    0.63
  C4                   CONDUIT     0.433     0  03:01      1.98    0.10    0.61
  C7                   CONDUIT     0.229     0  03:01      1.43    0.06    0.58
  C14                  CONDUIT     0.271     0  02:35      2.08    0.02    0.09
  C5                   CONDUIT     0.072     0  03:01      1.39    1.22    1.00
  C8                   CONDUIT     0.127     0  03:05      1.75    1.60    0.86
  C15                  CONDUIT     0.486     0  02:52      3.42    1.55    0.83
  C21                  CONDUIT     0.202     0  03:05      1.82    1.16    0.69
  V4                   ORIFICE     0.068     0  03:41                      1.00
  V5                   ORIFICE     0.039     0  03:00                      1.00
  V1                   ORIFICE     0.271     0  02:33                      1.00
  V6                   ORIFICE     0.175     0  02:58                      1.00
  V3                   ORIFICE     0.185     0  05:31                      1.00
  V2                   ORIFICE     0.119     0  03:25                      1.00
  
  
  ***************************
  Flow Classification Summary
  ***************************
  
  -------------------------------------------------------------------------------------
                      Adjusted    ---------- Fraction of Time in Flow Class ---------- 
                       /Actual         Up    Down  Sub   Sup   Up    Down  Norm  Inlet 
  Conduit               Length    Dry  Dry   Dry   Crit  Crit  Crit  Crit  Ltd   Ctrl  
  -------------------------------------------------------------------------------------
  C1                      1.00   0.00  0.00  0.00  0.92  0.08  0.00  0.00  0.95  0.00
  C6                      1.00   0.00  0.00  0.00  0.12  0.88  0.00  0.00  0.00  0.00
  C2                      1.00   0.00  0.00  0.00  0.01  0.99  0.00  0.00  0.94  0.00
  C9                      1.00   0.00  0.00  0.00  1.00  0.00  0.00  0.00  1.00  0.00
  C16                     1.00   0.00  0.00  0.00  0.55  0.45  0.00  0.00  0.38  0.00
  C3                      1.00   0.00  0.00  0.00  0.05  0.94  0.00  0.00  0.07  0.00
  C19                     1.00   0.00  0.00  0.00  0.83  0.17  0.00  0.00  1.00  0.00
  C11                     1.00   0.00  0.00  0.00  0.31  0.69  0.00  0.00  1.00  0.00
  C20                     1.00   0.00  0.00  0.00  0.62  0.38  0.00  0.00  0.98  0.00
  C22                     1.00   0.00  0.00  0.00  0.87  0.13  0.00  0.00  1.00  0.00
  C12                     1.00   0.00  0.00  0.00  0.93  0.07  0.00  0.00  1.00  0.00
  C17                     1.00   0.00  0.00  0.00  0.58  0.42  0.00  0.00  0.97  0.00
  C10                     1.00   0.00  0.00  0.00  0.94  0.06  0.00  0.00  0.97  0.00
  C13                     1.00   0.00  0.00  0.00  0.85  0.15  0.00  0.00  0.32  0.00
  C18                     1.00   0.00  0.00  0.00  0.82  0.18  0.00  0.00  0.97  0.00
  C23                     1.00   0.00  0.00  0.00  0.90  0.10  0.00  0.00  0.94  0.00
  C4                      1.00   0.00  0.00  0.00  0.96  0.04  0.00  0.00  0.98  0.00
  C7                      1.00   0.00  0.00  0.00  0.91  0.09  0.00  0.00  0.96  0.00
  C14                     1.00   0.00  0.00  0.00  0.00  0.99  0.00  0.00  0.00  0.00
  C5                      1.00   0.00  0.00  0.00  0.89  0.11  0.00  0.00  0.88  0.00
  C8                      1.00   0.00  0.00  0.00  0.15  0.85  0.00  0.00  0.00  0.00
  C15                     1.00   0.00  0.00  0.00  0.00  1.00  0.00  0.00  0.00  0.00
  C21                     1.00   0.00  0.00  0.00  0.00  1.00  0.00  0.00  0.00  0.00
  
  
  *************************
  Conduit Surcharge Summary
  *************************
  
  ----------------------------------------------------------------------------
                                                           Hours        Hours 
                         --------- Hours Full --------   Above Full   Capacity
  Conduit                Both Ends  Upstream  Dnstream   Normal Flow   Limited
  ----------------------------------------------------------------------------
  C6                          0.01      0.70      0.01      0.60         0.01
  C10                         0.01      0.01      5.62      0.01         0.01
  C13                         0.01      0.01      5.24      0.01         0.01
  C18                         0.01      0.01      3.20      0.01         0.01
  C23                         0.01      0.01      5.97      0.01         0.01
  C4                          0.01      0.01      5.99      0.01         0.01
  C7                          0.01      0.01      5.50      0.01         0.01
  C5                          0.74      0.74      0.87      0.83         0.71
  C8                          0.01      0.77      0.01      0.80         0.01
  C15                         0.01      0.70      0.01      0.79         0.01
  C21                         0.01      0.42      0.01      0.42         0.01
  

  Analysis begun on:  Fri Sep  3 16:26:32 2021
  Analysis ended on:  Fri Sep  3 16:26:32 2021
  Total elapsed time: < 1 sec