
  EPA STORM WATER MANAGEMENT MODEL - VERSION 5.1 (Build 5.3.0.dev0)
  --------------------------------------------------------------

  
  *********************************************************
  NOTE: The summary statistics displayed in this report are
  based on results found at every computational time step,  
  not just on results from each reporting time step.
  *********************************************************
  
  ****************
  Analysis Options
  ****************
  Flow Units ............... CMS
  Process Models:
    Rainfall/Runoff ........ YES
    RDII ................... NO
    Snowmelt ............... NO
    Groundwater ............ NO
    Flow Routing ........... YES
    Ponding Allowed ........ YES
    Water Quality .......... NO
  Infiltration Method ...... HORTON
  Flow Routing Method ...... DYNWAVE
  Surcharge Method ......... EXTRAN
  Starting Date ............ 08/28/2015 08:00:00
  Ending Date .............. 08/28/2015 15:50:00
  Antecedent Dry Days ...... 0.0
  Report Time Step ......... 00:01:00
  Wet Time Step ............ 00:01:00
  Dry Time Step ............ 00:01:00
  Routing Time Step ........ 5.00 sec
  Variable Time Step ....... YES
  Maximum Trials ........... 8
  Number of Threads ........ 1
  Head Tolerance ........... 0.001500 m
  
  
  **************************        Volume         Depth
  Runoff Quantity Continuity     hectare-m            mm
  **************************     ---------       -------
  Total Precipitation ......         0.774         4.294
  Evaporation Loss .........         0.000         0.000
  Infiltration Loss ........         0.000         0.000
  Surface Runoff ...........         0.751         4.169
  Final Storage ............         0.023         0.126
  Continuity Error (%) .....        -0.008
  
  
  **************************        Volume        Volume
  Flow Routing Continuity        hectare-m      10^6 ltr
  **************************     ---------     ---------
  Dry Weather Inflow .......         0.396         3.955
  Wet Weather Inflow .......         0.751         7.512
  Groundwater Inflow .......         0.000         0.000
  RDII Inflow ..............         0.000         0.000
  External Inflow ..........         0.000         0.000
  External Outflow .........         0.576         5.765
  Flooding Loss ............         0.087         0.871
  Evaporation Loss .........         0.000         0.000
  Exfiltration Loss ........         0.000         0.000
  Initial Stored Volume ....         0.000         0.000
  Final Stored Volume ......         0.399         3.994
  Continuity Error (%) .....         7.304
  
  
  *************************
  Highest Continuity Errors
  *************************
  Node T5 (22.59%)
  Node T3 (15.38%)
  Node T1 (9.93%)
  Node T6 (5.61%)
  Node T4 (3.67%)
  
  
  ***************************
  Time-Step Critical Elements
  ***************************
  None
  
  
  ********************************
  Highest Flow Instability Indexes
  ********************************
  All links are stable.
  
  
  *************************
  Routing Time Step Summary
  *************************
  Minimum Time Step           :     4.50 sec
  Average Time Step           :     5.00 sec
  Maximum Time Step           :     5.00 sec
  Percent in Steady State     :     0.00
  Average Iterations per Step :     2.00
  Percent Not Converging      :     0.00
  
  
  ***************************
  Subcatchment Runoff Summary
  ***************************
  
  ------------------------------------------------------------------------------------------------------------------------------
                            Total      Total      Total      Total     Imperv       Perv      Total       Total     Peak  Runoff
                           Precip      Runon       Evap      Infil     Runoff     Runoff     Runoff      Runoff   Runoff   Coeff
  Subcatchment                 mm         mm         mm         mm         mm         mm         mm    10^6 ltr      CMS
  ------------------------------------------------------------------------------------------------------------------------------
  SC01                       4.29       0.00       0.00       0.00       4.21       0.00       4.21        1.39     0.27   0.980
  SC02                       4.29       0.00       0.00       0.00       4.20       0.00       4.20        0.96     0.19   0.979
  SC03                       4.29       0.00       0.00       0.00       4.23       0.00       4.23        0.76     0.15   0.984
  SC04                       4.29       0.00       0.00       0.00       4.11       0.00       4.11        0.28     0.05   0.957
  SC05                       4.29       0.00       0.00       0.00       4.20       0.00       4.20        0.66     0.13   0.979
  SC06                       4.29       0.00       0.00       0.00       4.06       0.00       4.06        1.32     0.23   0.946
  SC07                       4.29       0.00       0.00       0.00       4.11       0.00       4.11        0.20     0.03   0.957
  SC08                       4.29       0.00       0.00       0.00       4.18       0.00       4.18        1.17     0.22   0.973
  SC09                       4.29       0.00       0.00       0.00       4.16       0.00       4.16        0.29     0.05   0.968
  SC010                      4.29       0.00       0.00       0.00       4.18       0.00       4.18        0.49     0.09   0.974
  
  
  ******************
  Node Depth Summary
  ******************
  
  ---------------------------------------------------------------------------------
                                 Average  Maximum  Maximum  Time of Max    Reported
                                   Depth    Depth      HGL   Occurrence   Max Depth
  Node                 Type       Meters   Meters   Meters  days hr:min      Meters
  ---------------------------------------------------------------------------------
  J1                   JUNCTION     0.07     0.13    34.13     0  03:01        0.13
  J3                   JUNCTION     0.12     0.14    18.14     0  04:38        0.14
  CSO7                 JUNCTION     0.09     0.17    34.17     0  03:01        0.17
  J5                   JUNCTION     0.06     0.11    32.11     0  03:01        0.11
  CSO9                 JUNCTION     0.10     0.22    40.22     0  03:01        0.22
  J8                   JUNCTION     0.10     0.19    36.19     0  03:01        0.19
  CSO8                 JUNCTION     0.11     0.30    32.30     0  03:01        0.30
  J10                  JUNCTION     0.09     0.19    29.19     0  03:01        0.19
  J13                  JUNCTION     0.06     0.12    29.12     0  03:01        0.12
  J15                  JUNCTION     0.18     0.27    15.27     0  03:02        0.27
  J16                  JUNCTION     0.06     0.14    30.14     0  03:01        0.14
  CSO10                JUNCTION     0.10     0.26    30.26     0  03:01        0.26
  J12                  JUNCTION     0.14     0.24    26.24     0  03:03        0.23
  J4                   JUNCTION     0.11     0.20    33.20     0  03:03        0.20
  J6                   JUNCTION     0.07     0.09    25.09     0  03:42        0.09
  J2                   JUNCTION     0.06     0.07    25.07     0  04:27        0.07
  J19                  JUNCTION     0.14     0.17     8.17     0  03:07        0.17
  J9                   JUNCTION     0.11     0.15    29.15     0  03:45        0.15
  J14                  JUNCTION     0.13     0.16    20.16     0  06:04        0.16
  J17                  JUNCTION     0.08     0.11    20.11     0  03:25        0.11
  J7                   JUNCTION     0.08     0.15    39.15     0  03:02        0.15
  J11                  JUNCTION     0.09     0.21    31.21     0  03:01        0.21
  J18                  JUNCTION     0.05     0.11    29.11     0  03:01        0.11
  Out_to_WWTP          OUTFALL      0.14     0.17     6.17     0  07:15        0.17
  T5                   STORAGE      2.16     3.23    30.23     0  04:25        3.23
  T4                   STORAGE      0.79     1.57    28.57     0  03:40        1.57
  T6                   STORAGE      1.54     3.08    34.08     0  03:42        3.08
  T3                   STORAGE      1.83     2.84    24.84     0  05:51        2.84
  T2                   STORAGE      0.71     1.48    22.48     0  03:23        1.48
  T1                   STORAGE      3.51     5.00    15.00     0  03:06        5.00
  
  
  *******************
  Node Inflow Summary
  *******************
  
  -------------------------------------------------------------------------------------------------
                                  Maximum  Maximum                  Lateral       Total        Flow
                                  Lateral    Total  Time of Max      Inflow      Inflow     Balance
                                   Inflow   Inflow   Occurrence      Volume      Volume       Error
  Node                 Type           CMS      CMS  days hr:min    10^6 ltr    10^6 ltr     Percent
  -------------------------------------------------------------------------------------------------
  J1                   JUNCTION     0.151    0.151     0  03:01        1.22        1.22       0.051
  J3                   JUNCTION     0.000    0.213     0  04:36           0        4.36       0.884
  CSO7                 JUNCTION     0.047    0.047     0  03:01       0.486       0.486       0.093
  J5                   JUNCTION     0.056    0.100     0  03:01       0.411       0.893       0.148
  CSO9                 JUNCTION     0.061    0.061     0  03:01       0.483       0.483       0.091
  J8                   JUNCTION     0.267    0.325     0  03:01        2.26        2.74       0.158
  CSO8                 JUNCTION     0.233    0.233     0  03:01        1.46        1.46       0.037
  J10                  JUNCTION     0.169    0.396     0  03:01        1.15         2.6       0.205
  J13                  JUNCTION     0.206    0.206     0  03:01        1.42        1.42      -0.230
  J15                  JUNCTION     0.000    0.637     0  03:01           0        8.23       1.086
  J16                  JUNCTION     0.296    0.296     0  03:01        1.94        1.94       0.016
  CSO10                JUNCTION     0.100    0.100     0  03:01       0.631       0.631       0.067
  J12                  JUNCTION     0.000    0.508     0  03:01           0        5.06       0.524
  J4                   JUNCTION     0.000    0.047     0  03:01           0       0.485       0.776
  J6                   JUNCTION     0.000    0.045     0  03:40           0       0.814       0.424
  J2                   JUNCTION     0.000    0.032     0  04:25           0       0.673       0.675
  J19                  JUNCTION     0.000    0.271     0  03:06           0        5.78       0.217
  J9                   JUNCTION     0.000    0.137     0  03:42           0        2.48       0.700
  J14                  JUNCTION     0.000    0.143     0  05:51           0        2.89       0.281
  J17                  JUNCTION     0.000    0.076     0  03:23           0        1.33       0.448
  J7                   JUNCTION     0.000    0.061     0  03:01           0       0.483       0.667
  J11                  JUNCTION     0.000    0.233     0  03:01           0        1.46       0.402
  J18                  JUNCTION     0.000    0.099     0  03:01           0        0.63       0.147
  Out_to_WWTP          OUTFALL      0.000    0.271     0  03:08           0        5.76       0.000
  T5                   STORAGE      0.000    0.149     0  03:01           0        1.22      29.176
  T4                   STORAGE      0.000    0.099     0  03:01           0       0.891       3.814
  T6                   STORAGE      0.000    0.320     0  03:01           0        2.74       5.946
  T3                   STORAGE      0.000    0.499     0  03:03           0        5.03      18.176
  T2                   STORAGE      0.000    0.204     0  03:01           0        1.43       2.622
  T1                   STORAGE      0.000    0.622     0  03:02           0        8.14      11.025
  
  
  **********************
  Node Surcharge Summary
  **********************
  
  No nodes were surcharged.
  
  
  *********************
  Node Flooding Summary
  *********************
  
  Flooding refers to all water that overflows a node, whether it ponds or not.
  --------------------------------------------------------------------------
                                                             Total   Maximum
                                 Maximum   Time of Max       Flood    Ponded
                        Hours       Rate    Occurrence      Volume     Depth
  Node                 Flooded       CMS   days hr:min    10^6 ltr    Meters
  --------------------------------------------------------------------------
  T1                      3.76     0.328      0  03:06       0.871     0.000
  
  
  **********************
  Storage Volume Summary
  **********************
  
  --------------------------------------------------------------------------------------------------
                         Average     Avg  Evap Exfil       Maximum     Max    Time of Max    Maximum
                          Volume    Pcnt  Pcnt  Pcnt        Volume    Pcnt     Occurrence    Outflow
  Storage Unit           1000 m3    Full  Loss  Loss       1000 m3    Full    days hr:min        CMS
  --------------------------------------------------------------------------------------------------
  T5                       0.216      43     0     0         0.323      65       0  04:25      0.032
  T4                       0.079      16     0     0         0.157      31       0  03:40      0.045
  T6                       0.184      31     0     0         0.370      62       0  03:42      0.137
  T3                       0.951      37     0     0         1.477      57       0  05:51      0.143
  T2                       0.142      14     0     0         0.295      30       0  03:23      0.076
  T1                       0.491      70     0     0         0.700     100       0  03:06      0.271
  
  
  ***********************
  Outfall Loading Summary
  ***********************
  
  -----------------------------------------------------------
                         Flow       Avg       Max       Total
                         Freq      Flow      Flow      Volume
  Outfall Node           Pcnt       CMS       CMS    10^6 ltr
  -----------------------------------------------------------
  Out_to_WWTP           99.01     0.206     0.271       5.765
  -----------------------------------------------------------
  System                99.01     0.206     0.271       5.765
  
  
  ********************
  Link Flow Summary
  ********************
  
  -----------------------------------------------------------------------------
                                 Maximum  Time of Max   Maximum    Max/    Max/
                                  |Flow|   Occurrence   |Veloc|    Full    Full
  Link                 Type          CMS  days hr:min     m/sec    Flow   Depth
  -----------------------------------------------------------------------------
  C1                   CONDUIT     0.032     0  04:28      0.91    0.01    0.11
  C6                   CONDUIT     0.045     0  03:03      1.22    0.71    0.52
  C2                   CONDUIT     0.045     0  03:42      1.15    0.05    0.20
  C9                   CONDUIT     0.059     0  03:02      1.01    0.20    0.34
  C16                  CONDUIT     0.229     0  03:02      1.40    0.02    0.10
  C3                   CONDUIT     0.143     0  05:51      1.89    0.05    0.15
  C19                  CONDUIT     0.076     0  03:25      0.94    0.03    0.19
  C11                  CONDUIT     0.213     0  04:38      1.72    0.01    0.10
  C20                  CONDUIT     0.293     0  03:01      1.79    0.01    0.10
  C22                  CONDUIT     0.098     0  03:02      1.07    0.04    0.24
  C12                  CONDUIT     0.137     0  03:45      1.30    0.01    0.09
  C17                  CONDUIT     0.390     0  03:01      2.17    0.02    0.11
  C10                  CONDUIT     0.320     0  03:01      1.66    0.03    0.56
  C13                  CONDUIT     0.499     0  03:03      1.53    0.03    0.56
  C18                  CONDUIT     0.204     0  03:01      1.72    0.01    0.39
  C23                  CONDUIT     0.622     0  03:02      1.26    0.07    0.59
  C4                   CONDUIT     0.149     0  03:01      1.98    0.04    0.57
  C7                   CONDUIT     0.099     0  03:01      1.43    0.02    0.55
  C14                  CONDUIT     0.271     0  03:08      2.08    0.02    0.09
  C5                   CONDUIT     0.047     0  03:01      1.22    0.80    0.73
  C8                   CONDUIT     0.061     0  03:01      1.27    0.77    0.58
  C15                  CONDUIT     0.233     0  03:01      2.50    0.74    0.56
  C21                  CONDUIT     0.099     0  03:01      1.61    0.57    0.42
  V4                   ORIFICE     0.045     0  03:40                      1.00
  V5                   ORIFICE     0.032     0  04:25                      1.00
  V1                   ORIFICE     0.271     0  03:06                      1.00
  V6                   ORIFICE     0.137     0  03:42                      1.00
  V3                   ORIFICE     0.143     0  05:51                      1.00
  V2                   ORIFICE     0.076     0  03:23                      1.00
  
  
  ***************************
  Flow Classification Summary
  ***************************
  
  -------------------------------------------------------------------------------------
                      Adjusted    ---------- Fraction of Time in Flow Class ---------- 
                       /Actual         Up    Down  Sub   Sup   Up    Down  Norm  Inlet 
  Conduit               Length    Dry  Dry   Dry   Crit  Crit  Crit  Crit  Ltd   Ctrl  
  -------------------------------------------------------------------------------------
  C1                      1.00   0.00  0.00  0.00  0.92  0.08  0.00  0.00  0.95  0.00
  C6                      1.00   0.00  0.00  0.00  0.01  0.99  0.00  0.00  0.00  0.00
  C2                      1.00   0.00  0.00  0.00  0.14  0.86  0.00  0.00  0.94  0.00
  C9                      1.00   0.00  0.00  0.00  1.00  0.00  0.00  0.00  1.00  0.00
  C16                     1.00   0.00  0.00  0.00  0.60  0.40  0.00  0.00  0.49  0.00
  C3                      1.00   0.00  0.00  0.00  0.05  0.94  0.00  0.00  0.07  0.00
  C19                     1.00   0.00  0.00  0.00  1.00  0.00  0.00  0.00  1.00  0.00
  C11                     1.00   0.00  0.00  0.00  0.28  0.72  0.00  0.00  1.00  0.00
  C20                     1.00   0.00  0.00  0.00  0.64  0.36  0.00  0.00  0.98  0.00
  C22                     1.00   0.00  0.00  0.00  0.97  0.03  0.00  0.00  1.00  0.00
  C12                     1.00   0.00  0.00  0.00  0.35  0.65  0.00  0.00  0.65  0.00
  C17                     1.00   0.00  0.00  0.00  0.50  0.50  0.00  0.00  0.97  0.00
  C10                     1.00   0.00  0.00  0.00  0.94  0.06  0.00  0.00  0.97  0.00
  C13                     1.00   0.00  0.00  0.00  0.87  0.13  0.00  0.00  0.91  0.00
  C18                     1.00   0.00  0.00  0.00  0.81  0.19  0.00  0.00  0.97  0.00
  C23                     1.00   0.00  0.00  0.00  0.90  0.10  0.00  0.00  0.94  0.00
  C4                      1.00   0.00  0.00  0.00  0.96  0.04  0.00  0.00  0.98  0.00
  C7                      1.00   0.00  0.00  0.00  0.91  0.09  0.00  0.00  0.96  0.00
  C14                     1.00   0.00  0.00  0.00  0.00  0.99  0.00  0.00  0.07  0.00
  C5                      1.00   0.00  0.00  0.00  0.88  0.12  0.00  0.00  0.98  0.00
  C8                      1.00   0.00  0.00  0.00  0.00  1.00  0.00  0.00  0.00  0.00
  C15                     1.00   0.00  0.00  0.00  0.00  1.00  0.00  0.00  0.00  0.00
  C21                     1.00   0.00  0.00  0.00  0.00  1.00  0.00  0.00  0.00  0.00
  
  
  *************************
  Conduit Surcharge Summary
  *************************
  
  ----------------------------------------------------------------------------
                                                           Hours        Hours 
                         --------- Hours Full --------   Above Full   Capacity
  Conduit                Both Ends  Upstream  Dnstream   Normal Flow   Limited
  ----------------------------------------------------------------------------
  C10                         0.01      0.01      3.89      0.01         0.01
  C13                         0.01      0.01      4.68      0.01         0.01
  C23                         0.01      0.01      5.73      0.01         0.01
  C4                          0.01      0.01      5.73      0.01         0.01
  C7                          0.01      0.01      2.97      0.01         0.01
  

  Analysis begun on:  Fri Sep  3 16:26:41 2021
  Analysis ended on:  Fri Sep  3 16:26:42 2021
  Total elapsed time: 00:00:01