
  EPA STORM WATER MANAGEMENT MODEL - VERSION 5.1 (Build 5.3.0.dev0)
  --------------------------------------------------------------

  
  *********************************************************
  NOTE: The summary statistics displayed in this report are
  based on results found at every computational time step,  
  not just on results from each reporting time step.
  *********************************************************
  
  ****************
  Analysis Options
  ****************
  Flow Units ............... CMS
  Process Models:
    Rainfall/Runoff ........ YES
    RDII ................... NO
    Snowmelt ............... NO
    Groundwater ............ NO
    Flow Routing ........... YES
    Ponding Allowed ........ YES
    Water Quality .......... NO
  Infiltration Method ...... HORTON
  Flow Routing Method ...... DYNWAVE
  Surcharge Method ......... EXTRAN
  Starting Date ............ 08/28/2015 08:00:00
  Ending Date .............. 08/28/2015 15:50:00
  Antecedent Dry Days ...... 0.0
  Report Time Step ......... 00:01:00
  Wet Time Step ............ 00:01:00
  Dry Time Step ............ 00:01:00
  Routing Time Step ........ 5.00 sec
  Variable Time Step ....... YES
  Maximum Trials ........... 8
  Number of Threads ........ 1
  Head Tolerance ........... 0.001500 m
  
  
  **************************        Volume         Depth
  Runoff Quantity Continuity     hectare-m            mm
  **************************     ---------       -------
  Total Precipitation ......         1.225         6.799
  Evaporation Loss .........         0.000         0.000
  Infiltration Loss ........         0.000         0.000
  Surface Runoff ...........         1.202         6.670
  Final Storage ............         0.023         0.130
  Continuity Error (%) .....        -0.007
  
  
  **************************        Volume        Volume
  Flow Routing Continuity        hectare-m      10^6 ltr
  **************************     ---------     ---------
  Dry Weather Inflow .......         0.396         3.955
  Wet Weather Inflow .......         1.202        12.020
  Groundwater Inflow .......         0.000         0.000
  RDII Inflow ..............         0.000         0.000
  External Inflow ..........         0.000         0.000
  External Outflow .........         0.599         5.986
  Flooding Loss ............         0.333         3.332
  Evaporation Loss .........         0.000         0.000
  Exfiltration Loss ........         0.000         0.000
  Initial Stored Volume ....         0.000         0.000
  Final Stored Volume ......         0.530         5.302
  Continuity Error (%) .....         8.481
  
  
  *************************
  Highest Continuity Errors
  *************************
  Node T5 (24.54%)
  Node T3 (16.83%)
  Node T1 (7.73%)
  Node T6 (6.96%)
  Node T2 (5.29%)
  
  
  ***************************
  Time-Step Critical Elements
  ***************************
  None
  
  
  ********************************
  Highest Flow Instability Indexes
  ********************************
  All links are stable.
  
  
  *************************
  Routing Time Step Summary
  *************************
  Minimum Time Step           :     4.50 sec
  Average Time Step           :     5.00 sec
  Maximum Time Step           :     5.00 sec
  Percent in Steady State     :     0.00
  Average Iterations per Step :     2.08
  Percent Not Converging      :     0.73
  
  
  ***************************
  Subcatchment Runoff Summary
  ***************************
  
  ------------------------------------------------------------------------------------------------------------------------------
                            Total      Total      Total      Total     Imperv       Perv      Total       Total     Peak  Runoff
                           Precip      Runon       Evap      Infil     Runoff     Runoff     Runoff      Runoff   Runoff   Coeff
  Subcatchment                 mm         mm         mm         mm         mm         mm         mm    10^6 ltr      CMS
  ------------------------------------------------------------------------------------------------------------------------------
  SC01                       6.80       0.00       0.00       0.00       6.71       0.00       6.71        2.22     0.44   0.987
  SC02                       6.80       0.00       0.00       0.00       6.71       0.00       6.71        1.53     0.30   0.987
  SC03                       6.80       0.00       0.00       0.00       6.73       0.00       6.73        1.21     0.25   0.990
  SC04                       6.80       0.00       0.00       0.00       6.61       0.00       6.61        0.46     0.08   0.972
  SC05                       6.80       0.00       0.00       0.00       6.71       0.00       6.71        1.05     0.21   0.987
  SC06                       6.80       0.00       0.00       0.00       6.56       0.00       6.56        2.13     0.38   0.964
  SC07                       6.80       0.00       0.00       0.00       6.61       0.00       6.61        0.31     0.06   0.972
  SC08                       6.80       0.00       0.00       0.00       6.68       0.00       6.68        1.87     0.36   0.983
  SC09                       6.80       0.00       0.00       0.00       6.66       0.00       6.66        0.46     0.09   0.979
  SC010                      6.80       0.00       0.00       0.00       6.69       0.00       6.69        0.79     0.15   0.984
  
  
  ******************
  Node Depth Summary
  ******************
  
  ---------------------------------------------------------------------------------
                                 Average  Maximum  Maximum  Time of Max    Reported
                                   Depth    Depth      HGL   Occurrence   Max Depth
  Node                 Type       Meters   Meters   Meters  days hr:min      Meters
  ---------------------------------------------------------------------------------
  J1                   JUNCTION     0.07     0.16    34.16     0  03:01        0.16
  J3                   JUNCTION     0.13     0.16    18.16     0  04:15        0.16
  CSO7                 JUNCTION     0.12     1.20    35.20     0  02:58        1.19
  J5                   JUNCTION     0.07     0.13    32.13     0  03:01        0.13
  CSO9                 JUNCTION     0.13     0.84    40.84     0  03:01        0.84
  J8                   JUNCTION     0.11     0.23    36.23     0  03:01        0.23
  CSO8                 JUNCTION     0.15     0.95    32.95     0  03:01        0.95
  J10                  JUNCTION     0.10     0.24    29.24     0  03:01        0.24
  J13                  JUNCTION     0.06     0.15    29.15     0  03:01        0.15
  J15                  JUNCTION     0.20     0.32    15.32     0  03:02        0.32
  J16                  JUNCTION     0.07     0.17    30.17     0  03:01        0.17
  CSO10                JUNCTION     0.12     0.36    30.36     0  03:01        0.36
  J12                  JUNCTION     0.19     0.29    26.29     0  03:02        0.29
  J4                   JUNCTION     0.13     1.06    34.06     0  02:58        0.75
  J6                   JUNCTION     0.08     0.10    25.10     0  03:38        0.10
  J2                   JUNCTION     0.06     0.08    25.08     0  03:56        0.08
  J19                  JUNCTION     0.14     0.17     8.17     0  02:37        0.17
  J9                   JUNCTION     0.13     0.16    29.16     0  03:41        0.16
  J14                  JUNCTION     0.14     0.18    20.18     0  06:26        0.18
  J17                  JUNCTION     0.10     0.13    20.13     0  03:23        0.13
  J7                   JUNCTION     0.09     0.19    39.19     0  03:01        0.19
  J11                  JUNCTION     0.10     0.26    31.26     0  03:01        0.26
  J18                  JUNCTION     0.06     0.14    29.14     0  03:01        0.14
  Out_to_WWTP          OUTFALL      0.14     0.17     6.17     0  02:36        0.17
  T5                   STORAGE      3.24     4.91    31.91     0  03:54        4.91
  T4                   STORAGE      1.34     2.71    29.71     0  03:36        2.71
  T6                   STORAGE      2.54     5.00    36.00     0  03:13        5.00
  T3                   STORAGE      2.81     4.27    26.27     0  05:48        4.27
  T2                   STORAGE      1.23     2.56    23.56     0  03:22        2.56
  T1                   STORAGE      3.71     5.00    15.00     0  02:36        5.00
  
  
  *******************
  Node Inflow Summary
  *******************
  
  -------------------------------------------------------------------------------------------------
                                  Maximum  Maximum                  Lateral       Total        Flow
                                  Lateral    Total  Time of Max      Inflow      Inflow     Balance
                                   Inflow   Inflow   Occurrence      Volume      Volume       Error
  Node                 Type           CMS      CMS  days hr:min    10^6 ltr    10^6 ltr     Percent
  -------------------------------------------------------------------------------------------------
  J1                   JUNCTION     0.230    0.230     0  03:01        1.61        1.61       0.026
  J3                   JUNCTION     0.000    0.269     0  04:14           0        5.43       0.831
  CSO7                 JUNCTION     0.070    0.070     0  03:01       0.604       0.604       0.076
  J5                   JUNCTION     0.090    0.160     0  03:01       0.583        1.18       0.101
  CSO9                 JUNCTION     0.096    0.096     0  03:01       0.656       0.656       0.073
  J8                   JUNCTION     0.423    0.516     0  03:01        3.08        3.73       0.106
  CSO8                 JUNCTION     0.374    0.374     0  03:01        2.16        2.16       0.025
  J10                  JUNCTION     0.263    0.629     0  03:01         1.6        3.75       0.124
  J13                  JUNCTION     0.322    0.322     0  03:01        1.99        1.99      -0.237
  J15                  JUNCTION     0.000    0.937     0  03:01           0        10.8       0.974
  J16                  JUNCTION     0.465    0.465     0  03:01        2.77        2.77      -0.016
  CSO10                JUNCTION     0.159    0.159     0  03:01       0.925       0.925       0.044
  J12                  JUNCTION     0.000    0.780     0  03:01           0         6.9       0.464
  J4                   JUNCTION     0.000    0.070     0  03:01           0       0.604       0.568
  J6                   JUNCTION     0.000    0.059     0  03:36           0        1.05       0.396
  J2                   JUNCTION     0.000    0.039     0  03:54           0       0.819       0.643
  J19                  JUNCTION     0.000    0.271     0  02:36           0           6       0.211
  J9                   JUNCTION     0.000    0.175     0  03:13           0        3.17       0.650
  J14                  JUNCTION     0.000    0.175     0  05:48           0        3.58       0.265
  J17                  JUNCTION     0.000    0.100     0  03:22           0        1.76       0.462
  J7                   JUNCTION     0.000    0.096     0  03:01           0       0.655       0.484
  J11                  JUNCTION     0.000    0.374     0  03:01           0        2.16       0.282
  J18                  JUNCTION     0.000    0.158     0  03:01           0       0.924       0.071
  Out_to_WWTP          OUTFALL      0.000    0.271     0  02:38           0        5.99       0.000
  T5                   STORAGE      0.000    0.229     0  03:01           0        1.61      32.524
  T4                   STORAGE      0.000    0.158     0  03:01           0        1.18       5.350
  T6                   STORAGE      0.000    0.509     0  03:01           0        3.72       7.479
  T3                   STORAGE      0.000    0.767     0  03:02           0        6.87      20.232
  T2                   STORAGE      0.000    0.319     0  03:01           0           2       5.583
  T1                   STORAGE      0.000    0.917     0  03:02           0        10.7       8.379
  
  
  **********************
  Node Surcharge Summary
  **********************
  
  Surcharging occurs when water rises above the top of the highest conduit.
  ---------------------------------------------------------------------
                                               Max. Height   Min. Depth
                                   Hours       Above Crown    Below Rim
  Node                 Type      Surcharged         Meters       Meters
  ---------------------------------------------------------------------
  CSO7                 JUNCTION        0.24          0.945        0.000
  CSO9                 JUNCTION        0.33          0.524        1.158
  CSO8                 JUNCTION        0.21          0.495        1.052
  J4                   JUNCTION        0.19          0.763        0.937
  
  
  *********************
  Node Flooding Summary
  *********************
  
  Flooding refers to all water that overflows a node, whether it ponds or not.
  --------------------------------------------------------------------------
                                                             Total   Maximum
                                 Maximum   Time of Max       Flood    Ponded
                        Hours       Rate    Occurrence      Volume     Depth
  Node                 Flooded       CMS   days hr:min    10^6 ltr    Meters
  --------------------------------------------------------------------------
  CSO7                    0.01     0.002      0  02:58       0.000     0.000
  T6                      0.47     0.186      0  03:13       0.126     0.000
  T1                      5.23     0.646      0  03:02       3.206     0.000
  
  
  **********************
  Storage Volume Summary
  **********************
  
  --------------------------------------------------------------------------------------------------
                         Average     Avg  Evap Exfil       Maximum     Max    Time of Max    Maximum
                          Volume    Pcnt  Pcnt  Pcnt        Volume    Pcnt     Occurrence    Outflow
  Storage Unit           1000 m3    Full  Loss  Loss       1000 m3    Full    days hr:min        CMS
  --------------------------------------------------------------------------------------------------
  T5                       0.324      65     0     0         0.491      98       0  03:54      0.039
  T4                       0.134      27     0     0         0.271      54       0  03:36      0.059
  T6                       0.305      51     0     0         0.600     100       0  03:13      0.175
  T3                       1.462      56     0     0         2.219      85       0  05:48      0.175
  T2                       0.246      25     0     0         0.513      51       0  03:22      0.100
  T1                       0.520      74     0     0         0.700     100       0  02:36      0.271
  
  
  ***********************
  Outfall Loading Summary
  ***********************
  
  -----------------------------------------------------------
                         Flow       Avg       Max       Total
                         Freq      Flow      Flow      Volume
  Outfall Node           Pcnt       CMS       CMS    10^6 ltr
  -----------------------------------------------------------
  Out_to_WWTP           99.01     0.214     0.271       5.986
  -----------------------------------------------------------
  System                99.01     0.214     0.271       5.986
  
  
  ********************
  Link Flow Summary
  ********************
  
  -----------------------------------------------------------------------------
                                 Maximum  Time of Max   Maximum    Max/    Max/
                                  |Flow|   Occurrence   |Veloc|    Full    Full
  Link                 Type          CMS  days hr:min     m/sec    Flow   Depth
  -----------------------------------------------------------------------------
  C1                   CONDUIT     0.039     0  03:56      0.91    0.01    0.12
  C6                   CONDUIT     0.070     0  03:01      1.29    1.11    0.72
  C2                   CONDUIT     0.059     0  03:38      1.27    0.07    0.22
  C9                   CONDUIT     0.093     0  03:01      1.16    0.32    0.43
  C16                  CONDUIT     0.367     0  03:01      1.62    0.04    0.13
  C3                   CONDUIT     0.175     0  05:49      2.02    0.07    0.17
  C19                  CONDUIT     0.100     0  03:23      1.04    0.03    0.22
  C11                  CONDUIT     0.269     0  04:15      1.83    0.01    0.12
  C20                  CONDUIT     0.461     0  03:01      2.10    0.01    0.12
  C22                  CONDUIT     0.156     0  03:01      1.28    0.07    0.29
  C12                  CONDUIT     0.175     0  03:41      1.41    0.01    0.11
  C17                  CONDUIT     0.620     0  03:01      2.52    0.03    0.13
  C10                  CONDUIT     0.509     0  03:01      1.66    0.05    0.58
  C13                  CONDUIT     0.767     0  03:02      1.53    0.05    0.57
  C18                  CONDUIT     0.319     0  03:01      1.72    0.01    0.54
  C23                  CONDUIT     0.917     0  03:02      1.26    0.10    0.61
  C4                   CONDUIT     0.229     0  03:01      1.98    0.06    0.58
  C7                   CONDUIT     0.158     0  03:01      1.43    0.04    0.57
  C14                  CONDUIT     0.271     0  02:38      2.08    0.02    0.09
  C5                   CONDUIT     0.070     0  03:01      1.36    1.20    1.00
  C8                   CONDUIT     0.096     0  03:01      1.40    1.21    0.80
  C15                  CONDUIT     0.374     0  03:01      2.75    1.19    0.79
  C21                  CONDUIT     0.158     0  03:01      1.76    0.90    0.57
  V4                   ORIFICE     0.059     0  03:36                      1.00
  V5                   ORIFICE     0.039     0  03:54                      1.00
  V1                   ORIFICE     0.271     0  02:36                      1.00
  V6                   ORIFICE     0.175     0  03:13                      1.00
  V3                   ORIFICE     0.175     0  05:48                      1.00
  V2                   ORIFICE     0.100     0  03:22                      1.00
  
  
  ***************************
  Flow Classification Summary
  ***************************
  
  -------------------------------------------------------------------------------------
                      Adjusted    ---------- Fraction of Time in Flow Class ---------- 
                       /Actual         Up    Down  Sub   Sup   Up    Down  Norm  Inlet 
  Conduit               Length    Dry  Dry   Dry   Crit  Crit  Crit  Crit  Ltd   Ctrl  
  -------------------------------------------------------------------------------------
  C1                      1.00   0.00  0.00  0.00  0.92  0.08  0.00  0.00  0.95  0.00
  C6                      1.00   0.00  0.00  0.00  0.06  0.94  0.00  0.00  0.00  0.00
  C2                      1.00   0.00  0.00  0.00  0.09  0.90  0.00  0.00  0.94  0.00
  C9                      1.00   0.00  0.00  0.00  1.00  0.00  0.00  0.00  1.00  0.00
  C16                     1.00   0.00  0.00  0.00  0.56  0.43  0.00  0.00  0.45  0.00
  C3                      1.00   0.00  0.00  0.00  0.05  0.94  0.00  0.00  0.07  0.00
  C19                     1.00   0.00  0.00  0.00  1.00  0.00  0.00  0.00  1.00  0.00
  C11                     1.00   0.00  0.00  0.00  0.30  0.70  0.00  0.00  1.00  0.00
  C20                     1.00   0.00  0.00  0.00  0.63  0.37  0.00  0.00  0.98  0.00
  C22                     1.00   0.00  0.00  0.00  0.97  0.03  0.00  0.00  1.00  0.00
  C12                     1.00   0.00  0.00  0.00  0.71  0.28  0.00  0.00  0.99  0.00
  C17                     1.00   0.00  0.00  0.00  0.51  0.49  0.00  0.00  0.97  0.00
  C10                     1.00   0.00  0.00  0.00  0.94  0.06  0.00  0.00  0.97  0.00
  C13                     1.00   0.00  0.00  0.00  0.84  0.16  0.00  0.00  0.47  0.00
  C18                     1.00   0.00  0.00  0.00  0.82  0.18  0.00  0.00  0.97  0.00
  C23                     1.00   0.00  0.00  0.00  0.90  0.10  0.00  0.00  0.94  0.00
  C4                      1.00   0.00  0.00  0.00  0.96  0.04  0.00  0.00  0.98  0.00
  C7                      1.00   0.00  0.00  0.00  0.91  0.09  0.00  0.00  0.96  0.00
  C14                     1.00   0.00  0.00  0.00  0.00  0.99  0.00  0.00  0.00  0.00
  C5                      1.00   0.00  0.00  0.00  0.90  0.10  0.00  0.00  0.94  0.00
  C8                      1.00   0.00  0.00  0.00  0.11  0.89  0.00  0.00  0.00  0.00
  C15                     1.00   0.00  0.00  0.00  0.00  1.00  0.00  0.00  0.00  0.00
  C21                     1.00   0.00  0.00  0.00  0.00  1.00  0.00  0.00  0.00  0.00
  
  
  *************************
  Conduit Surcharge Summary
  *************************
  
  ----------------------------------------------------------------------------
                                                           Hours        Hours 
                         --------- Hours Full --------   Above Full   Capacity
  Conduit                Both Ends  Upstream  Dnstream   Normal Flow   Limited
  ----------------------------------------------------------------------------
  C6                          0.01      0.19      0.01      0.09         0.01
  C10                         0.01      0.01      5.44      0.01         0.01
  C13                         0.01      0.01      5.19      0.01         0.01
  C18                         0.01      0.01      1.73      0.01         0.01
  C23                         0.01      0.01      5.98      0.01         0.01
  C4                          0.01      0.01      6.00      0.01         0.01
  C7                          0.01      0.01      4.80      0.01         0.01
  C5                          0.24      0.24      0.41      0.38         0.21
  C8                          0.01      0.33      0.01      0.35         0.01
  C15                         0.01      0.21      0.01      0.35         0.01
  

  Analysis begun on:  Fri Sep  3 16:33:19 2021
  Analysis ended on:  Fri Sep  3 16:33:20 2021
  Total elapsed time: 00:00:01