
  EPA STORM WATER MANAGEMENT MODEL - VERSION 5.1 (Build 5.3.0.dev0)
  --------------------------------------------------------------

  
  *********************************************************
  NOTE: The summary statistics displayed in this report are
  based on results found at every computational time step,  
  not just on results from each reporting time step.
  *********************************************************
  
  ****************
  Analysis Options
  ****************
  Flow Units ............... CMS
  Process Models:
    Rainfall/Runoff ........ YES
    RDII ................... NO
    Snowmelt ............... NO
    Groundwater ............ NO
    Flow Routing ........... YES
    Ponding Allowed ........ YES
    Water Quality .......... NO
  Infiltration Method ...... HORTON
  Flow Routing Method ...... DYNWAVE
  Surcharge Method ......... EXTRAN
  Starting Date ............ 08/28/2015 08:00:00
  Ending Date .............. 08/28/2015 15:50:00
  Antecedent Dry Days ...... 0.0
  Report Time Step ......... 00:01:00
  Wet Time Step ............ 00:01:00
  Dry Time Step ............ 00:01:00
  Routing Time Step ........ 5.00 sec
  Variable Time Step ....... YES
  Maximum Trials ........... 8
  Number of Threads ........ 1
  Head Tolerance ........... 0.001500 m
  
  
  **************************        Volume         Depth
  Runoff Quantity Continuity     hectare-m            mm
  **************************     ---------       -------
  Total Precipitation ......         1.129         6.263
  Evaporation Loss .........         0.000         0.000
  Infiltration Loss ........         0.000         0.000
  Surface Runoff ...........         1.105         6.133
  Final Storage ............         0.023         0.130
  Continuity Error (%) .....        -0.008
  
  
  **************************        Volume        Volume
  Flow Routing Continuity        hectare-m      10^6 ltr
  **************************     ---------     ---------
  Dry Weather Inflow .......         0.396         3.955
  Wet Weather Inflow .......         1.105        11.052
  Groundwater Inflow .......         0.000         0.000
  RDII Inflow ..............         0.000         0.000
  External Inflow ..........         0.000         0.000
  External Outflow .........         0.541         5.414
  Flooding Loss ............         0.116         1.162
  Evaporation Loss .........         0.000         0.000
  Exfiltration Loss ........         0.000         0.000
  Initial Stored Volume ....         0.000         0.000
  Final Stored Volume ......         0.643         6.433
  Continuity Error (%) .....        13.320
  
  
  *************************
  Highest Continuity Errors
  *************************
  Node T2 (39.03%)
  Node T5 (24.37%)
  Node T4 (24.31%)
  Node T3 (21.17%)
  Node T6 (20.45%)
  
  
  ***************************
  Time-Step Critical Elements
  ***************************
  None
  
  
  ********************************
  Highest Flow Instability Indexes
  ********************************
  All links are stable.
  
  
  *************************
  Routing Time Step Summary
  *************************
  Minimum Time Step           :     4.50 sec
  Average Time Step           :     5.00 sec
  Maximum Time Step           :     5.00 sec
  Percent in Steady State     :     0.00
  Average Iterations per Step :     2.12
  Percent Not Converging      :     0.62
  
  
  ***************************
  Subcatchment Runoff Summary
  ***************************
  
  ------------------------------------------------------------------------------------------------------------------------------
                            Total      Total      Total      Total     Imperv       Perv      Total       Total     Peak  Runoff
                           Precip      Runon       Evap      Infil     Runoff     Runoff     Runoff      Runoff   Runoff   Coeff
  Subcatchment                 mm         mm         mm         mm         mm         mm         mm    10^6 ltr      CMS
  ------------------------------------------------------------------------------------------------------------------------------
  SC01                       6.26       0.00       0.00       0.00       6.18       0.00       6.18        2.04     0.54   0.986
  SC02                       6.26       0.00       0.00       0.00       6.17       0.00       6.17        1.40     0.37   0.985
  SC03                       6.26       0.00       0.00       0.00       6.19       0.00       6.19        1.11     0.31   0.989
  SC04                       6.26       0.00       0.00       0.00       6.07       0.00       6.07        0.42     0.09   0.969
  SC05                       6.26       0.00       0.00       0.00       6.17       0.00       6.17        0.96     0.25   0.985
  SC06                       6.26       0.00       0.00       0.00       6.02       0.00       6.02        1.96     0.42   0.961
  SC07                       6.26       0.00       0.00       0.00       6.07       0.00       6.07        0.29     0.07   0.969
  SC08                       6.26       0.00       0.00       0.00       6.15       0.00       6.15        1.72     0.43   0.981
  SC09                       6.26       0.00       0.00       0.00       6.12       0.00       6.12        0.42     0.10   0.977
  SC010                      6.26       0.00       0.00       0.00       6.15       0.00       6.15        0.72     0.18   0.982
  
  
  ******************
  Node Depth Summary
  ******************
  
  ---------------------------------------------------------------------------------
                                 Average  Maximum  Maximum  Time of Max    Reported
                                   Depth    Depth      HGL   Occurrence   Max Depth
  Node                 Type       Meters   Meters   Meters  days hr:min      Meters
  ---------------------------------------------------------------------------------
  J1                   JUNCTION     0.07     0.17    34.17     0  03:01        0.17
  J3                   JUNCTION     0.10     0.13    18.13     0  05:04        0.13
  CSO7                 JUNCTION     0.12     1.20    35.20     0  02:58        1.20
  J5                   JUNCTION     0.06     0.14    32.14     0  03:01        0.14
  CSO9                 JUNCTION     0.13     1.35    41.35     0  03:01        1.34
  J8                   JUNCTION     0.11     0.24    36.24     0  03:01        0.24
  CSO8                 JUNCTION     0.15     1.56    33.56     0  03:01        1.56
  J10                  JUNCTION     0.09     0.26    29.26     0  03:01        0.26
  J13                  JUNCTION     0.06     0.17    29.17     0  03:01        0.17
  J15                  JUNCTION     0.16     0.30    15.30     0  03:02        0.30
  J16                  JUNCTION     0.07     0.18    30.18     0  03:01        0.18
  CSO10                JUNCTION     0.12     0.97    30.97     0  03:01        0.92
  J12                  JUNCTION     0.13     0.29    26.29     0  03:03        0.29
  J4                   JUNCTION     0.13     1.22    34.22     0  02:58        0.76
  J6                   JUNCTION     0.05     0.07    25.07     0  05:06        0.07
  J2                   JUNCTION     0.06     0.08    25.08     0  04:07        0.08
  J19                  JUNCTION     0.14     0.17     8.17     0  03:03        0.17
  J9                   JUNCTION     0.09     0.11    29.11     0  04:22        0.11
  J14                  JUNCTION     0.11     0.14    20.14     0  07:39        0.14
  J17                  JUNCTION     0.05     0.07    20.07     0  07:41        0.07
  J7                   JUNCTION     0.08     0.21    39.21     0  03:02        0.21
  J11                  JUNCTION     0.10     0.28    31.28     0  03:01        0.28
  J18                  JUNCTION     0.05     0.15    29.15     0  03:01        0.15
  Out_to_WWTP          OUTFALL      0.14     0.17     6.17     0  04:05        0.17
  T5                   STORAGE      2.98     4.57    31.57     0  04:05        4.57
  T4                   STORAGE      2.58     4.02    31.02     0  05:04        4.02
  T6                   STORAGE      3.38     5.00    36.00     0  03:05        5.00
  T3                   STORAGE      2.53     3.86    25.86     0  05:43        3.86
  T2                   STORAGE      2.51     3.85    24.85     0  07:20        3.85
  T1                   STORAGE      3.13     5.00    15.00     0  03:01        5.00
  
  
  *******************
  Node Inflow Summary
  *******************
  
  -------------------------------------------------------------------------------------------------
                                  Maximum  Maximum                  Lateral       Total        Flow
                                  Lateral    Total  Time of Max      Inflow      Inflow     Balance
                                   Inflow   Inflow   Occurrence      Volume      Volume       Error
  Node                 Type           CMS      CMS  days hr:min    10^6 ltr    10^6 ltr     Percent
  -------------------------------------------------------------------------------------------------
  J1                   JUNCTION     0.273    0.273     0  03:01        1.52        1.52       0.035
  J3                   JUNCTION     0.000    0.171     0  05:02           0        3.27       1.032
  CSO7                 JUNCTION     0.077    0.077     0  03:01       0.579       0.579       0.077
  J5                   JUNCTION     0.100    0.171     0  03:01       0.546        1.12       0.144
  CSO9                 JUNCTION     0.109    0.109     0  03:01       0.618       0.618       0.074
  J8                   JUNCTION     0.461    0.563     0  03:01         2.9        3.51       0.152
  CSO8                 JUNCTION     0.438    0.438     0  03:01        2.01        2.01       0.028
  J10                  JUNCTION     0.325    0.741     0  03:01         1.5        3.51       0.147
  J13                  JUNCTION     0.385    0.385     0  03:01        1.87        1.87      -0.184
  J15                  JUNCTION     0.000    0.843     0  03:01           0        7.07       1.100
  J16                  JUNCTION     0.561    0.561     0  03:01        2.59        2.59       0.001
  CSO10                JUNCTION     0.187    0.187     0  03:01       0.862       0.862       0.041
  J12                  JUNCTION     0.000    0.791     0  03:01           0        5.09       0.498
  J4                   JUNCTION     0.000    0.071     0  02:58           0       0.577       0.579
  J6                   JUNCTION     0.000    0.025     0  05:04           0       0.478       0.487
  J2                   JUNCTION     0.000    0.038     0  04:05           0       0.783       0.631
  J19                  JUNCTION     0.000    0.271     0  03:01           0        5.43       0.206
  J9                   JUNCTION     0.000    0.075     0  03:05           0         1.6       1.081
  J14                  JUNCTION     0.000    0.109     0  05:43           0        2.03       0.335
  J17                  JUNCTION     0.000    0.029     0  07:30           0       0.386       1.518
  J7                   JUNCTION     0.000    0.109     0  03:01           0       0.618       0.514
  J11                  JUNCTION     0.000    0.438     0  03:01           0        2.01       0.302
  J18                  JUNCTION     0.000    0.186     0  03:01           0       0.861       0.108
  Out_to_WWTP          OUTFALL      0.000    0.271     0  03:03           0        5.41       0.000
  T5                   STORAGE      0.000    0.269     0  03:01           0        1.52      32.216
  T4                   STORAGE      0.000    0.168     0  03:01           0        1.12      32.126
  T6                   STORAGE      0.000    0.551     0  03:01           0        3.51      25.708
  T3                   STORAGE      0.000    0.767     0  03:03           0        5.06      26.857
  T2                   STORAGE      0.000    0.379     0  03:01           0        1.88      64.008
  T1                   STORAGE      0.000    0.802     0  03:02           0           7       9.370
  
  
  **********************
  Node Surcharge Summary
  **********************
  
  Surcharging occurs when water rises above the top of the highest conduit.
  ---------------------------------------------------------------------
                                               Max. Height   Min. Depth
                                   Hours       Above Crown    Below Rim
  Node                 Type      Surcharged         Meters       Meters
  ---------------------------------------------------------------------
  CSO7                 JUNCTION        0.27          0.945        0.000
  CSO9                 JUNCTION        0.31          1.029        0.653
  CSO8                 JUNCTION        0.25          1.108        0.439
  CSO10                JUNCTION        0.04          0.526        0.034
  J4                   JUNCTION        0.23          0.923        0.777
  
  
  *********************
  Node Flooding Summary
  *********************
  
  Flooding refers to all water that overflows a node, whether it ponds or not.
  --------------------------------------------------------------------------
                                                             Total   Maximum
                                 Maximum   Time of Max       Flood    Ponded
                        Hours       Rate    Occurrence      Volume     Depth
  Node                 Flooded       CMS   days hr:min    10^6 ltr    Meters
  --------------------------------------------------------------------------
  CSO7                    0.08     0.007      0  03:01       0.001     0.000
  T6                      1.99     0.436      0  03:05       0.685     0.000
  T1                      0.84     0.531      0  03:02       0.476     0.000
  
  
  **********************
  Storage Volume Summary
  **********************
  
  --------------------------------------------------------------------------------------------------
                         Average     Avg  Evap Exfil       Maximum     Max    Time of Max    Maximum
                          Volume    Pcnt  Pcnt  Pcnt        Volume    Pcnt     Occurrence    Outflow
  Storage Unit           1000 m3    Full  Loss  Loss       1000 m3    Full    days hr:min        CMS
  --------------------------------------------------------------------------------------------------
  T5                       0.298      60     0     0         0.457      91       0  04:05      0.038
  T4                       0.258      52     0     0         0.402      80       0  05:04      0.025
  T6                       0.405      68     0     0         0.600     100       0  03:05      0.075
  T3                       1.316      51     0     0         2.009      77       0  05:43      0.109
  T2                       0.502      50     0     0         0.769      77       0  07:20      0.029
  T1                       0.439      63     0     0         0.700     100       0  03:01      0.271
  
  
  ***********************
  Outfall Loading Summary
  ***********************
  
  -----------------------------------------------------------
                         Flow       Avg       Max       Total
                         Freq      Flow      Flow      Volume
  Outfall Node           Pcnt       CMS       CMS    10^6 ltr
  -----------------------------------------------------------
  Out_to_WWTP           99.01     0.194     0.271       5.414
  -----------------------------------------------------------
  System                99.01     0.194     0.271       5.414
  
  
  ********************
  Link Flow Summary
  ********************
  
  -----------------------------------------------------------------------------
                                 Maximum  Time of Max   Maximum    Max/    Max/
                                  |Flow|   Occurrence   |Veloc|    Full    Full
  Link                 Type          CMS  days hr:min     m/sec    Flow   Depth
  -----------------------------------------------------------------------------
  C1                   CONDUIT     0.038     0  04:07      1.05    0.01    0.10
  C6                   CONDUIT     0.070     0  03:01      1.29    1.12    0.73
  C2                   CONDUIT     0.025     0  05:06      0.92    0.03    0.17
  C9                   CONDUIT     0.104     0  03:02      1.22    0.35    0.45
  C16                  CONDUIT     0.422     0  03:02      1.69    0.04    0.13
  C3                   CONDUIT     0.109     0  05:44      1.73    0.04    0.14
  C19                  CONDUIT     0.029     0  07:41      0.59    0.01    0.18
  C11                  CONDUIT     0.171     0  05:04      1.69    0.01    0.10
  C20                  CONDUIT     0.552     0  03:01      2.57    0.02    0.12
  C22                  CONDUIT     0.177     0  03:01      1.51    0.08    0.28
  C12                  CONDUIT     0.075     0  04:22      1.09    0.01    0.10
  C17                  CONDUIT     0.721     0  03:01      2.81    0.04    0.14
  C10                  CONDUIT     0.551     0  03:01      1.66    0.06    0.58
  C13                  CONDUIT     0.767     0  03:03      1.45    0.05    0.57
  C18                  CONDUIT     0.379     0  03:01      1.72    0.01    0.54
  C23                  CONDUIT     0.802     0  03:02      1.24    0.09    0.60
  C4                   CONDUIT     0.269     0  03:01      1.98    0.07    0.59
  C7                   CONDUIT     0.168     0  03:01      1.43    0.04    0.57
  C14                  CONDUIT     0.271     0  03:03      2.08    0.02    0.09
  C5                   CONDUIT     0.071     0  02:58      1.38    1.21    1.00
  C8                   CONDUIT     0.109     0  03:01      1.57    1.38    0.82
  C15                  CONDUIT     0.438     0  03:01      3.15    1.39    0.81
  C21                  CONDUIT     0.186     0  03:01      1.77    1.07    0.67
  V4                   ORIFICE     0.025     0  05:04                      0.35
  V5                   ORIFICE     0.038     0  04:05                      1.00
  V1                   ORIFICE     0.271     0  03:01                      1.00
  V6                   ORIFICE     0.075     0  03:05                      0.43
  V3                   ORIFICE     0.109     0  05:43                      0.65
  V2                   ORIFICE     0.029     0  07:30                      0.24
  
  
  ***************************
  Flow Classification Summary
  ***************************
  
  -------------------------------------------------------------------------------------
                      Adjusted    ---------- Fraction of Time in Flow Class ---------- 
                       /Actual         Up    Down  Sub   Sup   Up    Down  Norm  Inlet 
  Conduit               Length    Dry  Dry   Dry   Crit  Crit  Crit  Crit  Ltd   Ctrl  
  -------------------------------------------------------------------------------------
  C1                      1.00   0.00  0.00  0.00  0.00  1.00  0.00  0.00  0.94  0.00
  C6                      1.00   0.00  0.00  0.00  0.06  0.94  0.00  0.00  0.00  0.00
  C2                      1.00   0.00  0.00  0.00  0.66  0.34  0.00  0.00  0.95  0.00
  C9                      1.00   0.00  0.00  0.00  1.00  0.00  0.00  0.00  1.00  0.00
  C16                     1.00   0.00  0.00  0.00  0.57  0.43  0.00  0.00  0.43  0.00
  C3                      1.00   0.00  0.00  0.00  0.05  0.95  0.00  0.00  0.33  0.00
  C19                     1.00   0.00  0.00  0.00  1.00  0.00  0.00  0.00  1.00  0.00
  C11                     1.00   0.00  0.00  0.00  0.36  0.64  0.00  0.00  1.00  0.00
  C20                     1.00   0.00  0.00  0.00  0.54  0.46  0.00  0.00  0.98  0.00
  C22                     1.00   0.00  0.00  0.00  0.75  0.25  0.00  0.00  1.00  0.00
  C12                     1.00   0.00  0.00  0.00  0.50  0.50  0.00  0.00  1.00  0.00
  C17                     1.00   0.00  0.00  0.00  0.38  0.62  0.00  0.00  0.97  0.00
  C10                     1.00   0.00  0.00  0.00  0.96  0.04  0.00  0.00  0.97  0.00
  C13                     1.00   0.00  0.00  0.00  0.88  0.12  0.00  0.00  0.91  0.00
  C18                     1.00   0.00  0.00  0.00  0.94  0.06  0.00  0.00  0.97  0.00
  C23                     1.00   0.00  0.00  0.00  0.87  0.13  0.00  0.00  0.94  0.00
  C4                      1.00   0.00  0.00  0.00  0.96  0.04  0.00  0.00  0.98  0.00
  C7                      1.00   0.00  0.00  0.00  0.94  0.06  0.00  0.00  0.97  0.00
  C14                     1.00   0.00  0.00  0.00  0.00  0.99  0.00  0.00  0.23  0.00
  C5                      1.00   0.00  0.00  0.00  0.89  0.11  0.00  0.00  0.94  0.00
  C8                      1.00   0.00  0.00  0.00  0.08  0.92  0.00  0.00  0.00  0.00
  C15                     1.00   0.00  0.00  0.00  0.00  1.00  0.00  0.00  0.00  0.00
  C21                     1.00   0.00  0.00  0.00  0.00  1.00  0.00  0.00  0.00  0.00
  
  
  *************************
  Conduit Surcharge Summary
  *************************
  
  ----------------------------------------------------------------------------
                                                           Hours        Hours 
                         --------- Hours Full --------   Above Full   Capacity
  Conduit                Both Ends  Upstream  Dnstream   Normal Flow   Limited
  ----------------------------------------------------------------------------
  C6                          0.01      0.23      0.01      0.13         0.01
  C10                         0.01      0.01      5.61      0.01         0.01
  C13                         0.01      0.01      5.00      0.01         0.01
  C18                         0.01      0.01      5.05      0.01         0.01
  C23                         0.01      0.01      5.67      0.01         0.01
  C4                          0.01      0.01      5.84      0.01         0.01
  C7                          0.01      0.01      5.55      0.01         0.01
  C5                          0.27      0.27      0.38      0.34         0.24
  C8                          0.01      0.31      0.01      0.33         0.01
  C15                         0.01      0.26      0.01      0.34         0.01
  C21                         0.01      0.04      0.01      0.04         0.01
  

  Analysis begun on:  Fri Sep  3 19:42:52 2021
  Analysis ended on:  Fri Sep  3 19:42:52 2021
  Total elapsed time: < 1 sec