
  EPA STORM WATER MANAGEMENT MODEL - VERSION 5.1 (Build 5.3.0.dev0)
  --------------------------------------------------------------

  
  *********************************************************
  NOTE: The summary statistics displayed in this report are
  based on results found at every computational time step,  
  not just on results from each reporting time step.
  *********************************************************
  
  ****************
  Analysis Options
  ****************
  Flow Units ............... CMS
  Process Models:
    Rainfall/Runoff ........ YES
    RDII ................... NO
    Snowmelt ............... NO
    Groundwater ............ NO
    Flow Routing ........... YES
    Ponding Allowed ........ YES
    Water Quality .......... NO
  Infiltration Method ...... HORTON
  Flow Routing Method ...... DYNWAVE
  Surcharge Method ......... EXTRAN
  Starting Date ............ 08/28/2015 08:00:00
  Ending Date .............. 08/28/2015 15:50:00
  Antecedent Dry Days ...... 0.0
  Report Time Step ......... 00:01:00
  Wet Time Step ............ 00:01:00
  Dry Time Step ............ 00:01:00
  Routing Time Step ........ 5.00 sec
  Variable Time Step ....... YES
  Maximum Trials ........... 8
  Number of Threads ........ 1
  Head Tolerance ........... 0.001500 m
  
  
  **************************        Volume         Depth
  Runoff Quantity Continuity     hectare-m            mm
  **************************     ---------       -------
  Total Precipitation ......         1.846        10.241
  Evaporation Loss .........         0.000         0.000
  Infiltration Loss ........         0.000         0.000
  Surface Runoff ...........         1.822        10.111
  Final Storage ............         0.024         0.132
  Continuity Error (%) .....        -0.014
  
  
  **************************        Volume        Volume
  Flow Routing Continuity        hectare-m      10^6 ltr
  **************************     ---------     ---------
  Dry Weather Inflow .......         0.396         3.955
  Wet Weather Inflow .......         1.822        18.219
  Groundwater Inflow .......         0.000         0.000
  RDII Inflow ..............         0.000         0.000
  External Inflow ..........         0.000         0.000
  External Outflow .........         0.598         5.980
  Flooding Loss ............         0.547         5.466
  Evaporation Loss .........         0.000         0.000
  Exfiltration Loss ........         0.000         0.000
  Initial Stored Volume ....         0.000         0.000
  Final Stored Volume ......         0.811         8.108
  Continuity Error (%) .....        11.815
  
  
  *************************
  Highest Continuity Errors
  *************************
  Node T2 (32.31%)
  Node T4 (21.73%)
  Node T3 (21.11%)
  Node T5 (18.75%)
  Node T6 (14.33%)
  
  
  ***************************
  Time-Step Critical Elements
  ***************************
  None
  
  
  ********************************
  Highest Flow Instability Indexes
  ********************************
  All links are stable.
  
  
  *************************
  Routing Time Step Summary
  *************************
  Minimum Time Step           :     4.50 sec
  Average Time Step           :     5.00 sec
  Maximum Time Step           :     5.00 sec
  Percent in Steady State     :     0.00
  Average Iterations per Step :     2.20
  Percent Not Converging      :     0.64
  
  
  ***************************
  Subcatchment Runoff Summary
  ***************************
  
  ------------------------------------------------------------------------------------------------------------------------------
                            Total      Total      Total      Total     Imperv       Perv      Total       Total     Peak  Runoff
                           Precip      Runon       Evap      Infil     Runoff     Runoff     Runoff      Runoff   Runoff   Coeff
  Subcatchment                 mm         mm         mm         mm         mm         mm         mm    10^6 ltr      CMS
  ------------------------------------------------------------------------------------------------------------------------------
  SC01                      10.24       0.00       0.00       0.00      10.16       0.00      10.16        3.35     0.76   0.992
  SC02                      10.24       0.00       0.00       0.00      10.15       0.00      10.15        2.31     0.52   0.991
  SC03                      10.24       0.00       0.00       0.00      10.17       0.00      10.17        1.83     0.44   0.993
  SC04                      10.24       0.00       0.00       0.00      10.04       0.00      10.04        0.69     0.14   0.981
  SC05                      10.24       0.00       0.00       0.00      10.15       0.00      10.15        1.58     0.36   0.991
  SC06                      10.24       0.00       0.00       0.00       9.99       0.00       9.99        3.25     0.62   0.975
  SC07                      10.24       0.00       0.00       0.00      10.05       0.00      10.05        0.48     0.09   0.981
  SC08                      10.24       0.00       0.00       0.00      10.12       0.00      10.12        2.83     0.61   0.989
  SC09                      10.24       0.00       0.00       0.00      10.10       0.00      10.10        0.70     0.15   0.986
  SC010                     10.24       0.00       0.00       0.00      10.13       0.00      10.13        1.19     0.26   0.989
  
  
  ******************
  Node Depth Summary
  ******************
  
  ---------------------------------------------------------------------------------
                                 Average  Maximum  Maximum  Time of Max    Reported
                                   Depth    Depth      HGL   Occurrence   Max Depth
  Node                 Type       Meters   Meters   Meters  days hr:min      Meters
  ---------------------------------------------------------------------------------
  J1                   JUNCTION     0.08     0.20    34.20     0  02:53        0.20
  J3                   JUNCTION     0.11     0.14    18.14     0  04:45        0.14
  CSO7                 JUNCTION     0.19     1.20    35.20     0  02:37        1.20
  J5                   JUNCTION     0.07     0.16    32.16     0  02:57        0.16
  CSO9                 JUNCTION     0.23     2.00    42.00     0  02:45        2.00
  J8                   JUNCTION     0.12     0.29    36.29     0  02:58        0.29
  CSO8                 JUNCTION     0.26     2.00    34.00     0  02:44        2.00
  J10                  JUNCTION     0.11     0.29    29.29     0  02:52        0.29
  J13                  JUNCTION     0.07     0.20    29.20     0  02:53        0.20
  J15                  JUNCTION     0.18     0.36    15.36     0  02:56        0.36
  J16                  JUNCTION     0.08     0.22    30.22     0  02:53        0.22
  CSO10                JUNCTION     0.17     1.00    31.00     0  02:43        1.00
  J12                  JUNCTION     0.64     1.01    27.01     0  04:19        1.01
  J4                   JUNCTION     0.17     1.16    34.16     0  02:37        0.76
  J6                   JUNCTION     0.06     0.07    25.07     0  04:21        0.07
  J2                   JUNCTION     0.07     0.08    25.08     0  03:36        0.08
  J19                  JUNCTION     0.14     0.17     8.17     0  02:27        0.17
  J9                   JUNCTION     0.10     0.11    29.11     0  04:07        0.11
  J14                  JUNCTION     0.11     0.15    20.15     0  05:21        0.15
  J17                  JUNCTION     0.06     0.08    20.08     0  04:02        0.08
  J7                   JUNCTION     0.10     0.23    39.23     0  03:03        0.23
  J11                  JUNCTION     0.12     0.30    31.30     0  02:48        0.30
  J18                  JUNCTION     0.06     0.16    29.16     0  03:03        0.16
  Out_to_WWTP          OUTFALL      0.14     0.17     6.17     0  03:58        0.17
  T5                   STORAGE      3.57     5.00    32.00     0  02:48        5.00
  T4                   STORAGE      3.50     5.00    32.00     0  03:10        5.00
  T6                   STORAGE      3.75     5.00    36.00     0  02:30        5.00
  T3                   STORAGE      3.51     5.00    27.00     0  03:52        5.00
  T2                   STORAGE      3.55     5.00    26.00     0  03:05        5.00
  T1                   STORAGE      3.63     5.00    15.00     0  02:25        5.00
  
  
  *******************
  Node Inflow Summary
  *******************
  
  -------------------------------------------------------------------------------------------------
                                  Maximum  Maximum                  Lateral       Total        Flow
                                  Lateral    Total  Time of Max      Inflow      Inflow     Balance
                                   Inflow   Inflow   Occurrence      Volume      Volume       Error
  Node                 Type           CMS      CMS  days hr:min    10^6 ltr    10^6 ltr     Percent
  -------------------------------------------------------------------------------------------------
  J1                   JUNCTION     0.377    0.377     0  02:53        2.15        2.15      -0.016
  J3                   JUNCTION     0.000    0.191     0  04:32           0        3.55       1.087
  CSO7                 JUNCTION     0.105    0.105     0  02:56       0.768       0.768       0.061
  J5                   JUNCTION     0.142    0.214     0  02:56       0.821        1.55       0.074
  CSO9                 JUNCTION     0.153    0.153     0  02:55       0.893       0.893       0.054
  J8                   JUNCTION     0.657    0.785     0  03:00        4.19        5.06       0.072
  CSO8                 JUNCTION     0.621    0.621     0  02:54        3.13        3.13       0.013
  J10                  JUNCTION     0.453    0.941     0  02:51        2.22        5.23      -0.047
  J13                  JUNCTION     0.537    0.537     0  02:53        2.78        2.78      -0.221
  J15                  JUNCTION     0.000    1.130     0  02:53           0        9.36       0.909
  J16                  JUNCTION     0.785    0.785     0  02:53        3.91        3.91      -0.040
  CSO10                JUNCTION     0.263    0.263     0  02:54        1.33        1.33       0.025
  J12                  JUNCTION     0.000    1.013     0  02:52           0        7.13      10.856
  J4                   JUNCTION     0.000    0.071     0  02:57           0       0.728       0.468
  J6                   JUNCTION     0.000    0.028     0  03:30           0       0.547       0.733
  J2                   JUNCTION     0.000    0.039     0  02:48           0       0.872       0.582
  J19                  JUNCTION     0.000    0.271     0  02:25           0        5.99       0.197
  J9                   JUNCTION     0.000    0.075     0  02:30           0        1.72       1.005
  J14                  JUNCTION     0.000    0.124     0  04:33           0        2.14       0.344
  J17                  JUNCTION     0.000    0.033     0  03:05           0       0.672       0.992
  J7                   JUNCTION     0.000    0.127     0  03:03           0       0.873       0.366
  J11                  JUNCTION     0.000    0.486     0  02:48           0        3.02       0.229
  J18                  JUNCTION     0.000    0.202     0  03:03           0        1.28       0.048
  Out_to_WWTP          OUTFALL      0.000    0.271     0  02:27           0        5.98       0.000
  T5                   STORAGE      0.000    0.376     0  02:53           0        2.15      23.071
  T4                   STORAGE      0.000    0.213     0  02:57           0        1.54      27.759
  T6                   STORAGE      0.000    0.783     0  02:58           0        5.06      16.721
  T3                   STORAGE      0.000    1.004     0  02:55           0        6.43      26.758
  T2                   STORAGE      0.000    0.537     0  02:53           0        2.78      47.731
  T1                   STORAGE      0.000    1.115     0  02:56           0        9.27       8.112
  
  
  **********************
  Node Surcharge Summary
  **********************
  
  Surcharging occurs when water rises above the top of the highest conduit.
  ---------------------------------------------------------------------
                                               Max. Height   Min. Depth
                                   Hours       Above Crown    Below Rim
  Node                 Type      Surcharged         Meters       Meters
  ---------------------------------------------------------------------
  CSO7                 JUNCTION        0.72          0.945        0.000
  CSO9                 JUNCTION        0.72          1.682        0.000
  CSO8                 JUNCTION        0.76          1.547        0.000
  CSO10                JUNCTION        0.42          0.560        0.000
  J4                   JUNCTION        0.69          0.861        0.839
  
  
  *********************
  Node Flooding Summary
  *********************
  
  Flooding refers to all water that overflows a node, whether it ponds or not.
  --------------------------------------------------------------------------
                                                             Total   Maximum
                                 Maximum   Time of Max       Flood    Ponded
                        Hours       Rate    Occurrence      Volume     Depth
  Node                 Flooded       CMS   days hr:min    10^6 ltr    Meters
  --------------------------------------------------------------------------
  CSO7                    0.54     0.034      0  02:56       0.039     0.000
  CSO9                    0.29     0.025      0  02:55       0.019     0.000
  CSO8                    0.32     0.136      0  02:54       0.108     0.000
  CSO10                   0.33     0.061      0  02:54       0.050     0.000
  T5                      1.16     0.337      0  02:53       0.469     0.000
  T4                      1.74     0.146      0  03:10       0.203     0.000
  T6                      2.65     0.708      0  02:58       2.104     0.000
  T3                      0.70     0.316      0  03:52       0.197     0.000
  T2                      1.48     0.323      0  03:05       0.269     0.000
  T1                      1.36     0.844      0  02:56       2.008     0.000
  
  
  **********************
  Storage Volume Summary
  **********************
  
  --------------------------------------------------------------------------------------------------
                         Average     Avg  Evap Exfil       Maximum     Max    Time of Max    Maximum
                          Volume    Pcnt  Pcnt  Pcnt        Volume    Pcnt     Occurrence    Outflow
  Storage Unit           1000 m3    Full  Loss  Loss       1000 m3    Full    days hr:min        CMS
  --------------------------------------------------------------------------------------------------
  T5                       0.357      71     0     0         0.500     100       0  02:48      0.039
  T4                       0.350      70     0     0         0.500     100       0  03:10      0.028
  T6                       0.450      75     0     0         0.600     100       0  02:30      0.075
  T3                       1.825      70     0     0         2.600     100       0  03:52      0.372
  T2                       0.711      71     0     0         1.000     100       0  03:05      0.033
  T1                       0.508      73     0     0         0.700     100       0  02:25      0.271
  
  
  ***********************
  Outfall Loading Summary
  ***********************
  
  -----------------------------------------------------------
                         Flow       Avg       Max       Total
                         Freq      Flow      Flow      Volume
  Outfall Node           Pcnt       CMS       CMS    10^6 ltr
  -----------------------------------------------------------
  Out_to_WWTP           99.01     0.214     0.271       5.980
  -----------------------------------------------------------
  System                99.01     0.214     0.271       5.980
  
  
  ********************
  Link Flow Summary
  ********************
  
  -----------------------------------------------------------------------------
                                 Maximum  Time of Max   Maximum    Max/    Max/
                                  |Flow|   Occurrence   |Veloc|    Full    Full
  Link                 Type          CMS  days hr:min     m/sec    Flow   Depth
  -----------------------------------------------------------------------------
  C1                   CONDUIT     0.039     0  03:36      1.07    0.01    0.11
  C6                   CONDUIT     0.071     0  02:57      1.29    1.13    0.76
  C2                   CONDUIT     0.028     0  04:21      1.00    0.03    0.18
  C9                   CONDUIT     0.127     0  03:03      1.27    0.43    0.52
  C16                  CONDUIT     0.489     0  02:50      1.78    0.05    0.15
  C3                   CONDUIT     0.124     0  05:22      1.81    0.05    0.14
  C19                  CONDUIT     0.033     0  04:02      0.65    0.01    0.21
  C11                  CONDUIT     0.191     0  04:45      1.75    0.01    0.12
  C20                  CONDUIT     0.784     0  02:53      3.15    0.02    0.14
  C22                  CONDUIT     0.202     0  03:03      1.57    0.09    0.32
  C12                  CONDUIT     0.075     0  04:07      0.59    0.01    0.28
  C17                  CONDUIT     0.938     0  02:52      3.03    0.05    0.28
  C10                  CONDUIT     0.783     0  02:58      1.66    0.08    0.60
  C13                  CONDUIT     1.004     0  02:55      1.98    0.06    0.75
  C18                  CONDUIT     0.537     0  02:53      1.72    0.02    0.55
  C23                  CONDUIT     1.115     0  02:56      1.68    0.12    0.62
  C4                   CONDUIT     0.376     0  02:53      1.98    0.09    0.60
  C7                   CONDUIT     0.213     0  02:57      1.43    0.05    0.58
  C14                  CONDUIT     0.271     0  02:27      2.08    0.02    0.09
  C5                   CONDUIT     0.071     0  02:57      1.39    1.22    1.00
  C8                   CONDUIT     0.127     0  03:03      1.75    1.60    0.86
  C15                  CONDUIT     0.486     0  02:48      3.42    1.55    0.83
  C21                  CONDUIT     0.202     0  03:03      1.83    1.16    0.69
  V4                   ORIFICE     0.028     0  03:30                      0.35
  V5                   ORIFICE     0.039     0  02:48                      1.00
  V1                   ORIFICE     0.271     0  02:25                      1.00
  V6                   ORIFICE     0.075     0  02:30                      0.43
  V3                   ORIFICE     0.124     0  04:33                      0.65
  V2                   ORIFICE     0.033     0  03:05                      0.24
  
  
  ***************************
  Flow Classification Summary
  ***************************
  
  -------------------------------------------------------------------------------------
                      Adjusted    ---------- Fraction of Time in Flow Class ---------- 
                       /Actual         Up    Down  Sub   Sup   Up    Down  Norm  Inlet 
  Conduit               Length    Dry  Dry   Dry   Crit  Crit  Crit  Crit  Ltd   Ctrl  
  -------------------------------------------------------------------------------------
  C1                      1.00   0.00  0.00  0.00  0.21  0.79  0.00  0.00  0.94  0.00
  C6                      1.00   0.00  0.00  0.00  0.12  0.88  0.00  0.00  0.00  0.00
  C2                      1.00   0.00  0.00  0.00  0.49  0.51  0.00  0.00  0.95  0.00
  C9                      1.00   0.00  0.00  0.00  0.98  0.02  0.00  0.00  1.00  0.00
  C16                     1.00   0.00  0.00  0.00  0.53  0.47  0.00  0.00  0.37  0.00
  C3                      1.00   0.00  0.00  0.00  0.05  0.95  0.00  0.00  0.45  0.00
  C19                     1.00   0.00  0.00  0.00  1.00  0.00  0.00  0.00  1.00  0.00
  C11                     1.00   0.00  0.00  0.00  0.36  0.63  0.00  0.00  1.00  0.00
  C20                     1.00   0.00  0.00  0.00  0.53  0.47  0.00  0.00  0.97  0.00
  C22                     1.00   0.00  0.00  0.00  0.70  0.30  0.00  0.00  1.00  0.00
  C12                     1.00   0.00  0.00  0.00  1.00  0.00  0.00  0.00  1.00  0.00
  C17                     1.00   0.00  0.00  0.00  0.61  0.39  0.00  0.00  0.94  0.00
  C10                     1.00   0.00  0.00  0.00  0.96  0.04  0.00  0.00  0.97  0.00
  C13                     1.00   0.00  0.00  0.00  0.85  0.15  0.00  0.00  0.28  0.00
  C18                     1.00   0.00  0.00  0.00  0.92  0.08  0.00  0.00  0.97  0.00
  C23                     1.00   0.00  0.00  0.00  0.85  0.15  0.00  0.00  0.94  0.00
  C4                      1.00   0.00  0.00  0.00  0.96  0.04  0.00  0.00  0.98  0.00
  C7                      1.00   0.00  0.00  0.00  0.94  0.06  0.00  0.00  0.97  0.00
  C14                     1.00   0.00  0.00  0.00  0.00  0.99  0.00  0.00  0.32  0.00
  C5                      1.00   0.00  0.00  0.00  0.93  0.07  0.00  0.00  0.86  0.00
  C8                      1.00   0.00  0.00  0.00  0.18  0.82  0.00  0.00  0.00  0.00
  C15                     1.00   0.00  0.00  0.00  0.00  1.00  0.00  0.00  0.00  0.00
  C21                     1.00   0.00  0.00  0.00  0.00  1.00  0.00  0.00  0.00  0.00
  
  
  *************************
  Conduit Surcharge Summary
  *************************
  
  ----------------------------------------------------------------------------
                                                           Hours        Hours 
                         --------- Hours Full --------   Above Full   Capacity
  Conduit                Both Ends  Upstream  Dnstream   Normal Flow   Limited
  ----------------------------------------------------------------------------
  C6                          0.01      0.69      0.01      0.59         0.01
  C10                         0.01      0.01      6.27      0.01         0.01
  C13                         0.01      0.01      5.63      0.01         0.01
  C18                         0.01      0.01      5.71      0.01         0.01
  C23                         0.01      0.01      6.37      0.01         0.01
  C4                          0.01      0.01      6.46      0.01         0.01
  C7                          0.01      0.01      6.20      0.01         0.01
  C5                          0.72      0.72      0.85      0.81         0.69
  C8                          0.01      0.72      0.01      0.75         0.01
  C15                         0.01      0.76      0.01      0.88         0.01
  C21                         0.01      0.42      0.01      0.42         0.01
  

  Analysis begun on:  Fri Sep  3 19:47:55 2021
  Analysis ended on:  Fri Sep  3 19:47:55 2021
  Total elapsed time: < 1 sec