
  EPA STORM WATER MANAGEMENT MODEL - VERSION 5.1 (Build 5.3.0.dev0)
  --------------------------------------------------------------

  
  *********************************************************
  NOTE: The summary statistics displayed in this report are
  based on results found at every computational time step,  
  not just on results from each reporting time step.
  *********************************************************
  
  ****************
  Analysis Options
  ****************
  Flow Units ............... CMS
  Process Models:
    Rainfall/Runoff ........ YES
    RDII ................... NO
    Snowmelt ............... NO
    Groundwater ............ NO
    Flow Routing ........... YES
    Ponding Allowed ........ YES
    Water Quality .......... NO
  Infiltration Method ...... HORTON
  Flow Routing Method ...... DYNWAVE
  Surcharge Method ......... EXTRAN
  Starting Date ............ 08/28/2015 08:00:00
  Ending Date .............. 08/28/2015 15:50:00
  Antecedent Dry Days ...... 0.0
  Report Time Step ......... 00:01:00
  Wet Time Step ............ 00:01:00
  Dry Time Step ............ 00:01:00
  Routing Time Step ........ 5.00 sec
  Variable Time Step ....... YES
  Maximum Trials ........... 8
  Number of Threads ........ 1
  Head Tolerance ........... 0.001500 m
  
  
  **************************        Volume         Depth
  Runoff Quantity Continuity     hectare-m            mm
  **************************     ---------       -------
  Total Precipitation ......         2.922        16.216
  Evaporation Loss .........         0.000         0.000
  Infiltration Loss ........         0.000         0.000
  Surface Runoff ...........         2.899        16.085
  Final Storage ............         0.024         0.133
  Continuity Error (%) .....        -0.013
  
  
  **************************        Volume        Volume
  Flow Routing Continuity        hectare-m      10^6 ltr
  **************************     ---------     ---------
  Dry Weather Inflow .......         0.396         3.956
  Wet Weather Inflow .......         2.899        28.987
  Groundwater Inflow .......         0.000         0.000
  RDII Inflow ..............         0.000         0.000
  External Inflow ..........         0.000         0.000
  External Outflow .........         0.624         6.238
  Flooding Loss ............         1.593        15.929
  Evaporation Loss .........         0.000         0.000
  Exfiltration Loss ........         0.000         0.000
  Initial Stored Volume ....         0.000         0.000
  Final Stored Volume ......         0.806         8.059
  Continuity Error (%) .....         8.245
  
  
  *************************
  Highest Continuity Errors
  *************************
  Node T2 (21.43%)
  Node T3 (16.30%)
  Node T4 (16.28%)
  Node T5 (13.03%)
  Node T6 (11.47%)
  
  
  ***************************
  Time-Step Critical Elements
  ***************************
  None
  
  
  ********************************
  Highest Flow Instability Indexes
  ********************************
  All links are stable.
  
  
  *************************
  Routing Time Step Summary
  *************************
  Minimum Time Step           :     1.01 sec
  Average Time Step           :     5.00 sec
  Maximum Time Step           :     5.00 sec
  Percent in Steady State     :     0.00
  Average Iterations per Step :     2.24
  Percent Not Converging      :     0.50
  
  
  ***************************
  Subcatchment Runoff Summary
  ***************************
  
  ------------------------------------------------------------------------------------------------------------------------------
                            Total      Total      Total      Total     Imperv       Perv      Total       Total     Peak  Runoff
                           Precip      Runon       Evap      Infil     Runoff     Runoff     Runoff      Runoff   Runoff   Coeff
  Subcatchment                 mm         mm         mm         mm         mm         mm         mm    10^6 ltr      CMS
  ------------------------------------------------------------------------------------------------------------------------------
  SC01                      16.22       0.00       0.00       0.00      16.13       0.00      16.13        5.32     1.17   0.995
  SC02                      16.22       0.00       0.00       0.00      16.13       0.00      16.13        3.67     0.80   0.994
  SC03                      16.22       0.00       0.00       0.00      16.15       0.00      16.15        2.91     0.67   0.996
  SC04                      16.22       0.00       0.00       0.00      16.02       0.00      16.02        1.11     0.21   0.988
  SC05                      16.22       0.00       0.00       0.00      16.13       0.00      16.13        2.52     0.55   0.994
  SC06                      16.22       0.00       0.00       0.00      15.96       0.00      15.96        5.20     0.97   0.984
  SC07                      16.22       0.00       0.00       0.00      16.02       0.00      16.02        0.76     0.15   0.988
  SC08                      16.22       0.00       0.00       0.00      16.10       0.00      16.10        4.51     0.94   0.993
  SC09                      16.22       0.00       0.00       0.00      16.07       0.00      16.07        1.11     0.22   0.991
  SC010                     16.22       0.00       0.00       0.00      16.10       0.00      16.10        1.89     0.40   0.993
  
  
  ******************
  Node Depth Summary
  ******************
  
  ---------------------------------------------------------------------------------
                                 Average  Maximum  Maximum  Time of Max    Reported
                                   Depth    Depth      HGL   Occurrence   Max Depth
  Node                 Type       Meters   Meters   Meters  days hr:min      Meters
  ---------------------------------------------------------------------------------
  J1                   JUNCTION     0.09     0.25    34.25     0  02:29        0.25
  J3                   JUNCTION     0.11     0.14    18.14     0  03:57        0.14
  CSO7                 JUNCTION     0.36     1.20    35.20     0  01:19        1.20
  J5                   JUNCTION     0.08     0.18    32.18     0  02:32        0.18
  CSO9                 JUNCTION     0.46     2.00    42.00     0  02:06        2.00
  J8                   JUNCTION     0.14     0.34    36.34     0  02:33        0.34
  CSO8                 JUNCTION     0.50     2.00    34.00     0  01:13        2.00
  J10                  JUNCTION     0.12     0.33    29.33     0  02:28        0.33
  J13                  JUNCTION     0.08     0.24    29.24     0  02:29        0.24
  J15                  JUNCTION     0.20     0.42    15.42     0  02:32        0.42
  J16                  JUNCTION     0.09     0.26    30.26     0  02:28        0.26
  CSO10                JUNCTION     0.26     1.00    31.00     0  01:12        1.00
  J12                  JUNCTION     0.72     1.01    27.01     0  02:44        1.01
  J4                   JUNCTION     0.26     1.25    34.25     0  01:19        0.76
  J6                   JUNCTION     0.06     0.07    25.07     0  03:43        0.07
  J2                   JUNCTION     0.07     0.08    25.08     0  03:00        0.08
  J19                  JUNCTION     0.15     0.17     8.17     0  01:52        0.17
  J9                   JUNCTION     0.09     0.11    29.11     0  03:41        0.11
  J14                  JUNCTION     0.12     0.15    20.15     0  05:51        0.15
  J17                  JUNCTION     0.06     0.08    20.08     0  03:29        0.08
  J7                   JUNCTION     0.11     0.23    39.23     0  03:02        0.23
  J11                  JUNCTION     0.13     0.30    31.30     0  03:02        0.30
  J18                  JUNCTION     0.07     0.16    29.16     0  02:39        0.16
  Out_to_WWTP          OUTFALL      0.15     0.17     6.17     0  05:06        0.17
  T5                   STORAGE      3.79     5.00    32.00     0  02:12        5.00
  T4                   STORAGE      3.76     5.00    32.00     0  02:31        5.00
  T6                   STORAGE      3.98     5.00    36.00     0  01:59        5.00
  T3                   STORAGE      3.77     5.00    27.00     0  02:42        5.00
  T2                   STORAGE      3.81     5.00    26.00     0  02:26        5.00
  T1                   STORAGE      3.91     5.00    15.00     0  01:51        5.00
  
  
  *******************
  Node Inflow Summary
  *******************
  
  -------------------------------------------------------------------------------------------------
                                  Maximum  Maximum                  Lateral       Total        Flow
                                  Lateral    Total  Time of Max      Inflow      Inflow     Balance
                                   Inflow   Inflow   Occurrence      Volume      Volume       Error
  Node                 Type           CMS      CMS  days hr:min    10^6 ltr    10^6 ltr     Percent
  -------------------------------------------------------------------------------------------------
  J1                   JUNCTION     0.566    0.566     0  02:28        3.08        3.08      -0.019
  J3                   JUNCTION     0.000    0.191     0  03:12           0        3.99       0.971
  CSO7                 JUNCTION     0.157    0.157     0  02:31        1.05        1.05       0.054
  J5                   JUNCTION     0.218    0.290     0  02:31        1.23        2.07       0.046
  CSO9                 JUNCTION     0.231    0.231     0  02:30        1.31        1.31       0.037
  J8                   JUNCTION     1.001    1.128     0  02:32        6.14        7.25       0.042
  CSO8                 JUNCTION     0.950    0.950     0  02:29         4.8         4.8       0.010
  J10                  JUNCTION     0.682    1.168     0  02:27        3.29        7.26      -0.072
  J13                  JUNCTION     0.813    0.813     0  02:28        4.14        4.14      -0.193
  J15                  JUNCTION     0.000    1.573     0  02:29           0        12.2       0.693
  J16                  JUNCTION     1.189    1.189     0  02:28        5.88        5.88      -0.043
  CSO10                JUNCTION     0.402    0.402     0  02:29        2.03        2.03       0.002
  J12                  JUNCTION     0.000    1.239     0  02:28           0        8.84       7.419
  J4                   JUNCTION     0.000    0.074     0  01:16           0       0.844       0.386
  J6                   JUNCTION     0.000    0.028     0  02:50           0       0.569       0.713
  J2                   JUNCTION     0.000    0.039     0  02:12           0       0.904       0.560
  J19                  JUNCTION     0.000    0.271     0  01:51           0        6.25       0.191
  J9                   JUNCTION     0.000    0.075     0  01:59           0        1.58       0.410
  J14                  JUNCTION     0.000    0.124     0  03:10           0        2.53       0.288
  J17                  JUNCTION     0.000    0.033     0  02:26           0       0.716       0.943
  J7                   JUNCTION     0.000    0.127     0  03:02           0        1.12       0.285
  J11                  JUNCTION     0.000    0.486     0  03:02           0        3.97       0.186
  J18                  JUNCTION     0.000    0.202     0  02:39           0        1.67       0.025
  Out_to_WWTP          OUTFALL      0.000    0.271     0  01:53           0        6.24       0.000
  T5                   STORAGE      0.000    0.565     0  02:29           0        3.08      14.983
  T4                   STORAGE      0.000    0.290     0  02:32           0        2.07      19.445
  T6                   STORAGE      0.000    1.127     0  02:33           0        7.25      12.960
  T3                   STORAGE      0.000    1.127     0  02:24           0        8.23      19.471
  T2                   STORAGE      0.000    0.813     0  02:29           0        4.14      27.280
  T1                   STORAGE      0.000    1.552     0  02:32           0        12.1       6.287
  
  
  **********************
  Node Surcharge Summary
  **********************
  
  Surcharging occurs when water rises above the top of the highest conduit.
  ---------------------------------------------------------------------
                                               Max. Height   Min. Depth
                                   Hours       Above Crown    Below Rim
  Node                 Type      Surcharged         Meters       Meters
  ---------------------------------------------------------------------
  CSO7                 JUNCTION        2.04          0.945        0.000
  CSO9                 JUNCTION        2.00          1.682        0.000
  CSO8                 JUNCTION        1.99          1.547        0.000
  CSO10                JUNCTION        1.53          0.560        0.000
  J4                   JUNCTION        2.00          0.951        0.749
  
  
  *********************
  Node Flooding Summary
  *********************
  
  Flooding refers to all water that overflows a node, whether it ponds or not.
  --------------------------------------------------------------------------
                                                             Total   Maximum
                                 Maximum   Time of Max       Flood    Ponded
                        Hours       Rate    Occurrence      Volume     Depth
  Node                 Flooded       CMS   days hr:min    10^6 ltr    Meters
  --------------------------------------------------------------------------
  CSO7                    1.48     0.085      0  02:31       0.206     0.000
  CSO9                    0.95     0.104      0  02:30       0.184     0.000
  CSO8                    1.10     0.464      0  02:29       0.826     0.000
  CSO10                   1.14     0.199      0  02:29       0.360     0.000
  T5                      1.74     0.526      0  02:29       1.371     0.000
  T4                      2.39     0.275      0  02:32       0.704     0.000
  T6                      3.18     1.052      0  02:33       4.250     0.000
  T3                      1.74     0.991      0  02:46       1.857     0.000
  T2                      2.41     0.780      0  02:29       1.609     0.000
  T1                      2.95     1.281      0  02:32       4.562     0.000
  
  
  **********************
  Storage Volume Summary
  **********************
  
  --------------------------------------------------------------------------------------------------
                         Average     Avg  Evap Exfil       Maximum     Max    Time of Max    Maximum
                          Volume    Pcnt  Pcnt  Pcnt        Volume    Pcnt     Occurrence    Outflow
  Storage Unit           1000 m3    Full  Loss  Loss       1000 m3    Full    days hr:min        CMS
  --------------------------------------------------------------------------------------------------
  T5                       0.379      76     0     0         0.500     100       0  02:12      0.039
  T4                       0.376      75     0     0         0.500     100       0  02:31      0.028
  T6                       0.478      80     0     0         0.600     100       0  01:59      0.075
  T3                       1.959      75     0     0         2.600     100       0  02:42      0.124
  T2                       0.761      76     0     0         1.000     100       0  02:26      0.033
  T1                       0.547      78     0     0         0.700     100       0  01:51      0.271
  
  
  ***********************
  Outfall Loading Summary
  ***********************
  
  -----------------------------------------------------------
                         Flow       Avg       Max       Total
                         Freq      Flow      Flow      Volume
  Outfall Node           Pcnt       CMS       CMS    10^6 ltr
  -----------------------------------------------------------
  Out_to_WWTP           99.01     0.223     0.271       6.238
  -----------------------------------------------------------
  System                99.01     0.223     0.271       6.238
  
  
  ********************
  Link Flow Summary
  ********************
  
  -----------------------------------------------------------------------------
                                 Maximum  Time of Max   Maximum    Max/    Max/
                                  |Flow|   Occurrence   |Veloc|    Full    Full
  Link                 Type          CMS  days hr:min     m/sec    Flow   Depth
  -----------------------------------------------------------------------------
  C1                   CONDUIT     0.039     0  03:00      1.08    0.01    0.11
  C6                   CONDUIT     0.073     0  02:32      1.29    1.15    0.80
  C2                   CONDUIT     0.028     0  03:43      1.00    0.03    0.18
  C9                   CONDUIT     0.127     0  03:02      1.33    0.43    0.58
  C16                  CONDUIT     0.488     0  02:17      1.79    0.05    0.15
  C3                   CONDUIT     0.124     0  03:12      1.83    0.05    0.14
  C19                  CONDUIT     0.033     0  03:29      0.65    0.01    0.25
  C11                  CONDUIT     0.191     0  03:57      1.73    0.01    0.14
  C20                  CONDUIT     1.188     0  02:28      3.69    0.04    0.17
  C22                  CONDUIT     0.202     0  02:39      1.67    0.09    0.36
  C12                  CONDUIT     0.075     0  03:41      0.59    0.01    0.28
  C17                  CONDUIT     1.163     0  02:28      3.27    0.06    0.33
  C10                  CONDUIT     1.127     0  02:33      1.66    0.12    0.61
  C13                  CONDUIT     1.127     0  02:24      2.40    0.07    0.75
  C18                  CONDUIT     0.813     0  02:29      1.73    0.03    0.56
  C23                  CONDUIT     1.552     0  02:32      1.96    0.17    0.64
  C4                   CONDUIT     0.565     0  02:29      1.98    0.14    0.63
  C7                   CONDUIT     0.290     0  02:32      1.43    0.07    0.59
  C14                  CONDUIT     0.271     0  01:53      2.08    0.02    0.09
  C5                   CONDUIT     0.074     0  01:16      1.46    1.27    1.00
  C8                   CONDUIT     0.127     0  03:02      1.77    1.60    0.86
  C15                  CONDUIT     0.486     0  03:02      3.48    1.55    0.83
  C21                  CONDUIT     0.202     0  02:39      1.85    1.16    0.69
  V4                   ORIFICE     0.028     0  02:50                      0.35
  V5                   ORIFICE     0.039     0  02:12                      1.00
  V1                   ORIFICE     0.271     0  01:51                      1.00
  V6                   ORIFICE     0.075     0  01:59                      0.43
  V3                   ORIFICE     0.124     0  03:10                      0.65
  V2                   ORIFICE     0.033     0  02:26                      0.24
  
  
  ***************************
  Flow Classification Summary
  ***************************
  
  -------------------------------------------------------------------------------------
                      Adjusted    ---------- Fraction of Time in Flow Class ---------- 
                       /Actual         Up    Down  Sub   Sup   Up    Down  Norm  Inlet 
  Conduit               Length    Dry  Dry   Dry   Crit  Crit  Crit  Crit  Ltd   Ctrl  
  -------------------------------------------------------------------------------------
  C1                      1.00   0.00  0.00  0.00  0.16  0.84  0.00  0.00  0.94  0.00
  C6                      1.00   0.00  0.00  0.00  0.28  0.72  0.00  0.00  0.00  0.00
  C2                      1.00   0.00  0.00  0.00  0.68  0.32  0.00  0.00  0.95  0.00
  C9                      1.00   0.00  0.00  0.00  0.98  0.02  0.00  0.00  1.00  0.00
  C16                     1.00   0.00  0.00  0.00  0.53  0.47  0.00  0.00  0.44  0.00
  C3                      1.00   0.00  0.00  0.00  0.05  0.95  0.00  0.00  0.28  0.00
  C19                     1.00   0.00  0.00  0.00  1.00  0.00  0.00  0.00  1.00  0.00
  C11                     1.00   0.00  0.00  0.00  0.36  0.64  0.00  0.00  1.00  0.00
  C20                     1.00   0.00  0.00  0.00  0.55  0.45  0.00  0.00  0.97  0.00
  C22                     1.00   0.00  0.00  0.00  0.76  0.23  0.00  0.00  1.00  0.00
  C12                     1.00   0.00  0.00  0.00  1.00  0.00  0.00  0.00  1.00  0.00
  C17                     1.00   0.00  0.00  0.00  0.68  0.32  0.00  0.00  0.94  0.00
  C10                     1.00   0.00  0.00  0.00  0.96  0.04  0.00  0.00  0.97  0.00
  C13                     1.00   0.00  0.00  0.00  0.85  0.15  0.00  0.00  0.20  0.00
  C18                     1.00   0.00  0.00  0.00  0.92  0.08  0.00  0.00  0.97  0.00
  C23                     1.00   0.00  0.00  0.00  0.85  0.15  0.00  0.00  0.94  0.00
  C4                      1.00   0.00  0.00  0.00  0.96  0.04  0.00  0.00  0.98  0.00
  C7                      1.00   0.00  0.00  0.00  0.94  0.06  0.00  0.00  0.97  0.00
  C14                     1.00   0.00  0.00  0.00  0.00  0.99  0.00  0.00  0.34  0.00
  C5                      1.00   0.00  0.00  0.00  0.94  0.06  0.00  0.00  0.70  0.00
  C8                      1.00   0.00  0.00  0.00  0.26  0.74  0.00  0.00  0.00  0.00
  C15                     1.00   0.00  0.00  0.00  0.00  1.00  0.00  0.00  0.00  0.00
  C21                     1.00   0.00  0.00  0.00  0.02  0.98  0.00  0.00  0.00  0.00
  
  
  *************************
  Conduit Surcharge Summary
  *************************
  
  ----------------------------------------------------------------------------
                                                           Hours        Hours 
                         --------- Hours Full --------   Above Full   Capacity
  Conduit                Both Ends  Upstream  Dnstream   Normal Flow   Limited
  ----------------------------------------------------------------------------
  C6                          0.01      2.00      0.01      1.90         0.01
  C10                         0.01      0.01      6.42      0.01         0.01
  C13                         0.01      0.01      6.04      0.01         0.01
  C18                         0.01      0.01      6.14      0.01         0.01
  C23                         0.01      0.01      6.49      0.01         0.01
  C4                          0.01      0.01      6.55      0.01         0.01
  C7                          0.01      0.01      6.37      0.01         0.01
  C5                          2.00      2.04      2.10      2.05         1.97
  C8                          0.01      2.00      0.01      2.02         0.01
  C15                         0.01      1.99      0.01      2.01         0.01
  C21                         0.01      1.53      0.01      1.46         0.01
  

  Analysis begun on:  Fri Sep  3 19:49:28 2021
  Analysis ended on:  Fri Sep  3 19:49:28 2021
  Total elapsed time: < 1 sec