
  EPA STORM WATER MANAGEMENT MODEL - VERSION 5.1 (Build 5.3.0.dev0)
  --------------------------------------------------------------

  
  *********************************************************
  NOTE: The summary statistics displayed in this report are
  based on results found at every computational time step,  
  not just on results from each reporting time step.
  *********************************************************
  
  ****************
  Analysis Options
  ****************
  Flow Units ............... CMS
  Process Models:
    Rainfall/Runoff ........ YES
    RDII ................... NO
    Snowmelt ............... NO
    Groundwater ............ NO
    Flow Routing ........... YES
    Ponding Allowed ........ YES
    Water Quality .......... NO
  Infiltration Method ...... HORTON
  Flow Routing Method ...... DYNWAVE
  Surcharge Method ......... EXTRAN
  Starting Date ............ 08/28/2015 08:00:00
  Ending Date .............. 08/28/2015 15:50:00
  Antecedent Dry Days ...... 0.0
  Report Time Step ......... 00:01:00
  Wet Time Step ............ 00:01:00
  Dry Time Step ............ 00:01:00
  Routing Time Step ........ 5.00 sec
  Variable Time Step ....... YES
  Maximum Trials ........... 8
  Number of Threads ........ 1
  Head Tolerance ........... 0.001500 m
  
  
  **************************        Volume         Depth
  Runoff Quantity Continuity     hectare-m            mm
  **************************     ---------       -------
  Total Precipitation ......         0.774         4.294
  Evaporation Loss .........         0.000         0.000
  Infiltration Loss ........         0.000         0.000
  Surface Runoff ...........         0.751         4.169
  Final Storage ............         0.023         0.126
  Continuity Error (%) .....        -0.008
  
  
  **************************        Volume        Volume
  Flow Routing Continuity        hectare-m      10^6 ltr
  **************************     ---------     ---------
  Dry Weather Inflow .......         0.396         3.955
  Wet Weather Inflow .......         0.751         7.512
  Groundwater Inflow .......         0.000         0.000
  RDII Inflow ..............         0.000         0.000
  External Inflow ..........         0.000         0.000
  External Outflow .........         0.477         4.769
  Flooding Loss ............         0.000         0.000
  Evaporation Loss .........         0.000         0.000
  Exfiltration Loss ........         0.000         0.000
  Initial Stored Volume ....         0.000         0.000
  Final Stored Volume ......         0.542         5.424
  Continuity Error (%) .....        11.113
  
  
  *************************
  Highest Continuity Errors
  *************************
  Node T2 (38.88%)
  Node T6 (25.64%)
  Node T5 (22.59%)
  Node T4 (22.29%)
  Node T3 (20.62%)
  
  
  ***************************
  Time-Step Critical Elements
  ***************************
  None
  
  
  ********************************
  Highest Flow Instability Indexes
  ********************************
  All links are stable.
  
  
  *************************
  Routing Time Step Summary
  *************************
  Minimum Time Step           :     4.50 sec
  Average Time Step           :     5.00 sec
  Maximum Time Step           :     5.00 sec
  Percent in Steady State     :     0.00
  Average Iterations per Step :     2.00
  Percent Not Converging      :     0.00
  
  
  ***************************
  Subcatchment Runoff Summary
  ***************************
  
  ------------------------------------------------------------------------------------------------------------------------------
                            Total      Total      Total      Total     Imperv       Perv      Total       Total     Peak  Runoff
                           Precip      Runon       Evap      Infil     Runoff     Runoff     Runoff      Runoff   Runoff   Coeff
  Subcatchment                 mm         mm         mm         mm         mm         mm         mm    10^6 ltr      CMS
  ------------------------------------------------------------------------------------------------------------------------------
  SC01                       4.29       0.00       0.00       0.00       4.21       0.00       4.21        1.39     0.27   0.980
  SC02                       4.29       0.00       0.00       0.00       4.20       0.00       4.20        0.96     0.19   0.979
  SC03                       4.29       0.00       0.00       0.00       4.23       0.00       4.23        0.76     0.15   0.984
  SC04                       4.29       0.00       0.00       0.00       4.11       0.00       4.11        0.28     0.05   0.957
  SC05                       4.29       0.00       0.00       0.00       4.20       0.00       4.20        0.66     0.13   0.979
  SC06                       4.29       0.00       0.00       0.00       4.06       0.00       4.06        1.32     0.23   0.946
  SC07                       4.29       0.00       0.00       0.00       4.11       0.00       4.11        0.20     0.03   0.957
  SC08                       4.29       0.00       0.00       0.00       4.18       0.00       4.18        1.17     0.22   0.973
  SC09                       4.29       0.00       0.00       0.00       4.16       0.00       4.16        0.29     0.05   0.968
  SC010                      4.29       0.00       0.00       0.00       4.18       0.00       4.18        0.49     0.09   0.974
  
  
  ******************
  Node Depth Summary
  ******************
  
  ---------------------------------------------------------------------------------
                                 Average  Maximum  Maximum  Time of Max    Reported
                                   Depth    Depth      HGL   Occurrence   Max Depth
  Node                 Type       Meters   Meters   Meters  days hr:min      Meters
  ---------------------------------------------------------------------------------
  J1                   JUNCTION     0.07     0.13    34.13     0  03:01        0.13
  J3                   JUNCTION     0.09     0.12    18.12     0  06:03        0.12
  CSO7                 JUNCTION     0.09     0.17    34.17     0  03:01        0.17
  J5                   JUNCTION     0.06     0.11    32.11     0  03:01        0.11
  CSO9                 JUNCTION     0.10     0.22    40.22     0  03:01        0.22
  J8                   JUNCTION     0.10     0.19    36.19     0  03:01        0.19
  CSO8                 JUNCTION     0.11     0.30    32.30     0  03:01        0.30
  J10                  JUNCTION     0.09     0.19    29.19     0  03:01        0.19
  J13                  JUNCTION     0.06     0.12    29.12     0  03:01        0.12
  J15                  JUNCTION     0.15     0.23    15.23     0  03:02        0.23
  J16                  JUNCTION     0.06     0.14    30.14     0  03:01        0.14
  CSO10                JUNCTION     0.10     0.26    30.26     0  03:01        0.26
  J12                  JUNCTION     0.12     0.22    26.22     0  03:03        0.22
  J4                   JUNCTION     0.11     0.20    33.20     0  03:03        0.20
  J6                   JUNCTION     0.05     0.06    25.06     0  05:29        0.06
  J2                   JUNCTION     0.06     0.07    25.07     0  04:27        0.07
  J19                  JUNCTION     0.13     0.16     8.16     0  03:31        0.16
  J9                   JUNCTION     0.09     0.11    29.11     0  05:01        0.11
  J14                  JUNCTION     0.10     0.13    20.13     0  07:50        0.13
  J17                  JUNCTION     0.04     0.06    20.06     0  03:30        0.06
  J7                   JUNCTION     0.08     0.15    39.15     0  03:02        0.15
  J11                  JUNCTION     0.09     0.21    31.21     0  03:01        0.21
  J18                  JUNCTION     0.05     0.11    29.11     0  03:01        0.11
  Out_to_WWTP          OUTFALL      0.13     0.16     6.16     0  03:31        0.16
  T5                   STORAGE      2.16     3.23    30.23     0  04:25        3.23
  T4                   STORAGE      1.88     2.90    29.90     0  05:27        2.90
  T6                   STORAGE      3.15     4.93    35.93     0  05:00        4.93
  T3                   STORAGE      1.88     2.91    24.91     0  07:16        2.91
  T2                   STORAGE      1.80     2.80    23.80     0  07:50        2.80
  T1                   STORAGE      2.43     4.09    14.09     0  03:30        4.09
  
  
  *******************
  Node Inflow Summary
  *******************
  
  -------------------------------------------------------------------------------------------------
                                  Maximum  Maximum                  Lateral       Total        Flow
                                  Lateral    Total  Time of Max      Inflow      Inflow     Balance
                                   Inflow   Inflow   Occurrence      Volume      Volume       Error
  Node                 Type           CMS      CMS  days hr:min    10^6 ltr    10^6 ltr     Percent
  -------------------------------------------------------------------------------------------------
  J1                   JUNCTION     0.151    0.151     0  03:01        1.22        1.22       0.051
  J3                   JUNCTION     0.000    0.146     0  06:02           0        2.83       1.132
  CSO7                 JUNCTION     0.047    0.047     0  03:01       0.486       0.486       0.093
  J5                   JUNCTION     0.056    0.100     0  03:01       0.411       0.893       0.182
  CSO9                 JUNCTION     0.061    0.061     0  03:01       0.483       0.483       0.091
  J8                   JUNCTION     0.267    0.325     0  03:01        2.26        2.74       0.195
  CSO8                 JUNCTION     0.233    0.233     0  03:01        1.46        1.46       0.037
  J10                  JUNCTION     0.169    0.396     0  03:01        1.15         2.6       0.209
  J13                  JUNCTION     0.206    0.206     0  03:01        1.42        1.42      -0.210
  J15                  JUNCTION     0.000    0.489     0  03:01           0        5.68       1.223
  J16                  JUNCTION     0.296    0.296     0  03:01        1.94        1.94       0.029
  CSO10                JUNCTION     0.100    0.100     0  03:01       0.631       0.631       0.067
  J12                  JUNCTION     0.000    0.449     0  03:01           0        4.12       0.630
  J4                   JUNCTION     0.000    0.047     0  03:01           0       0.485       0.776
  J6                   JUNCTION     0.000    0.021     0  05:27           0       0.428       0.767
  J2                   JUNCTION     0.000    0.032     0  04:25           0       0.673       0.651
  J19                  JUNCTION     0.000    0.245     0  03:30           0        4.78       0.210
  J9                   JUNCTION     0.000    0.075     0  05:00           0        1.54       1.091
  J14                  JUNCTION     0.000    0.094     0  07:16           0        1.74       0.352
  J17                  JUNCTION     0.000    0.022     0  03:30           0       0.313       0.969
  J7                   JUNCTION     0.000    0.061     0  03:01           0       0.483       0.666
  J11                  JUNCTION     0.000    0.233     0  03:01           0        1.46       0.403
  J18                  JUNCTION     0.000    0.099     0  03:01           0        0.63       0.171
  Out_to_WWTP          OUTFALL      0.000    0.245     0  03:31           0        4.77       0.000
  T5                   STORAGE      0.000    0.149     0  03:01           0        1.22      29.176
  T4                   STORAGE      0.000    0.099     0  03:01           0       0.891      28.678
  T6                   STORAGE      0.000    0.320     0  03:01           0        2.74      34.482
  T3                   STORAGE      0.000    0.441     0  03:03           0         4.1      25.970
  T2                   STORAGE      0.000    0.204     0  03:01           0        1.43      63.618
  T1                   STORAGE      0.000    0.477     0  03:02           0        5.61       8.960
  
  
  **********************
  Node Surcharge Summary
  **********************
  
  No nodes were surcharged.
  
  
  *********************
  Node Flooding Summary
  *********************
  
  No nodes were flooded.
  
  
  **********************
  Storage Volume Summary
  **********************
  
  --------------------------------------------------------------------------------------------------
                         Average     Avg  Evap Exfil       Maximum     Max    Time of Max    Maximum
                          Volume    Pcnt  Pcnt  Pcnt        Volume    Pcnt     Occurrence    Outflow
  Storage Unit           1000 m3    Full  Loss  Loss       1000 m3    Full    days hr:min        CMS
  --------------------------------------------------------------------------------------------------
  T5                       0.216      43     0     0         0.323      65       0  04:25      0.032
  T4                       0.188      38     0     0         0.290      58       0  05:27      0.021
  T6                       0.378      63     0     0         0.592      99       0  05:00      0.075
  T3                       0.976      38     0     0         1.512      58       0  07:16      0.094
  T2                       0.360      36     0     0         0.559      56       0  07:50      0.022
  T1                       0.340      49     0     0         0.573      82       0  03:30      0.245
  
  
  ***********************
  Outfall Loading Summary
  ***********************
  
  -----------------------------------------------------------
                         Flow       Avg       Max       Total
                         Freq      Flow      Flow      Volume
  Outfall Node           Pcnt       CMS       CMS    10^6 ltr
  -----------------------------------------------------------
  Out_to_WWTP           99.01     0.171     0.245       4.769
  -----------------------------------------------------------
  System                99.01     0.171     0.245       4.769
  
  
  ********************
  Link Flow Summary
  ********************
  
  -----------------------------------------------------------------------------
                                 Maximum  Time of Max   Maximum    Max/    Max/
                                  |Flow|   Occurrence   |Veloc|    Full    Full
  Link                 Type          CMS  days hr:min     m/sec    Flow   Depth
  -----------------------------------------------------------------------------
  C1                   CONDUIT     0.032     0  04:27      0.99    0.01    0.10
  C6                   CONDUIT     0.045     0  03:03      1.22    0.71    0.52
  C2                   CONDUIT     0.021     0  05:29      0.89    0.02    0.15
  C9                   CONDUIT     0.059     0  03:02      1.01    0.20    0.34
  C16                  CONDUIT     0.229     0  03:02      1.40    0.02    0.10
  C3                   CONDUIT     0.094     0  07:17      1.64    0.04    0.13
  C19                  CONDUIT     0.022     0  03:30      0.44    0.01    0.15
  C11                  CONDUIT     0.146     0  06:04      1.61    0.01    0.08
  C20                  CONDUIT     0.293     0  03:01      2.02    0.01    0.09
  C22                  CONDUIT     0.098     0  03:02      1.21    0.04    0.22
  C12                  CONDUIT     0.075     0  05:01      1.09    0.01    0.08
  C17                  CONDUIT     0.390     0  03:01      2.27    0.02    0.10
  C10                  CONDUIT     0.320     0  03:01      1.66    0.03    0.56
  C13                  CONDUIT     0.441     0  03:03      1.45    0.03    0.55
  C18                  CONDUIT     0.204     0  03:01      1.72    0.01    0.53
  C23                  CONDUIT     0.477     0  03:02      1.24    0.05    0.58
  C4                   CONDUIT     0.149     0  03:01      1.98    0.04    0.57
  C7                   CONDUIT     0.099     0  03:01      1.43    0.02    0.55
  C14                  CONDUIT     0.245     0  03:31      2.02    0.01    0.08
  C5                   CONDUIT     0.047     0  03:01      1.22    0.80    0.73
  C8                   CONDUIT     0.061     0  03:01      1.27    0.77    0.58
  C15                  CONDUIT     0.233     0  03:01      2.50    0.74    0.56
  C21                  CONDUIT     0.099     0  03:01      1.61    0.57    0.42
  V4                   ORIFICE     0.021     0  05:27                      0.35
  V5                   ORIFICE     0.032     0  04:25                      1.00
  V1                   ORIFICE     0.245     0  03:30                      1.00
  V6                   ORIFICE     0.075     0  05:00                      0.43
  V3                   ORIFICE     0.094     0  07:16                      0.65
  V2                   ORIFICE     0.022     0  03:30                      0.24
  
  
  ***************************
  Flow Classification Summary
  ***************************
  
  -------------------------------------------------------------------------------------
                      Adjusted    ---------- Fraction of Time in Flow Class ---------- 
                       /Actual         Up    Down  Sub   Sup   Up    Down  Norm  Inlet 
  Conduit               Length    Dry  Dry   Dry   Crit  Crit  Crit  Crit  Ltd   Ctrl  
  -------------------------------------------------------------------------------------
  C1                      1.00   0.00  0.00  0.00  0.16  0.83  0.00  0.00  0.94  0.00
  C6                      1.00   0.00  0.00  0.00  0.01  0.99  0.00  0.00  0.00  0.00
  C2                      1.00   0.00  0.00  0.00  0.65  0.35  0.00  0.00  0.95  0.00
  C9                      1.00   0.00  0.00  0.00  1.00  0.00  0.00  0.00  1.00  0.00
  C16                     1.00   0.00  0.00  0.00  0.60  0.40  0.00  0.00  0.49  0.00
  C3                      1.00   0.00  0.00  0.00  0.05  0.95  0.00  0.00  0.33  0.00
  C19                     1.00   0.00  0.00  0.00  1.00  0.00  0.00  0.00  1.00  0.00
  C11                     1.00   0.00  0.00  0.00  0.36  0.64  0.00  0.00  1.00  0.00
  C20                     1.00   0.00  0.00  0.00  0.53  0.47  0.00  0.00  0.98  0.00
  C22                     1.00   0.00  0.00  0.00  0.79  0.21  0.00  0.00  1.00  0.00
  C12                     1.00   0.00  0.00  0.00  0.48  0.52  0.00  0.00  1.00  0.00
  C17                     1.00   0.00  0.00  0.00  0.40  0.60  0.00  0.00  0.97  0.00
  C10                     1.00   0.00  0.00  0.00  0.96  0.04  0.00  0.00  0.97  0.00
  C13                     1.00   0.00  0.00  0.00  0.88  0.12  0.00  0.00  0.91  0.00
  C18                     1.00   0.00  0.00  0.00  0.94  0.06  0.00  0.00  0.97  0.00
  C23                     1.00   0.00  0.00  0.00  0.87  0.13  0.00  0.00  0.94  0.00
  C4                      1.00   0.00  0.00  0.00  0.96  0.04  0.00  0.00  0.98  0.00
  C7                      1.00   0.00  0.00  0.00  0.94  0.06  0.00  0.00  0.97  0.00
  C14                     1.00   0.00  0.00  0.00  0.00  0.99  0.00  0.00  0.27  0.00
  C5                      1.00   0.00  0.00  0.00  0.88  0.12  0.00  0.00  0.98  0.00
  C8                      1.00   0.00  0.00  0.00  0.00  1.00  0.00  0.00  0.00  0.00
  C15                     1.00   0.00  0.00  0.00  0.00  1.00  0.00  0.00  0.00  0.00
  C21                     1.00   0.00  0.00  0.00  0.00  1.00  0.00  0.00  0.00  0.00
  
  
  *************************
  Conduit Surcharge Summary
  *************************
  
  ----------------------------------------------------------------------------
                                                           Hours        Hours 
                         --------- Hours Full --------   Above Full   Capacity
  Conduit                Both Ends  Upstream  Dnstream   Normal Flow   Limited
  ----------------------------------------------------------------------------
  C10                         0.01      0.01      5.47      0.01         0.01
  C13                         0.01      0.01      4.71      0.01         0.01
  C18                         0.01      0.01      4.72      0.01         0.01
  C23                         0.01      0.01      5.52      0.01         0.01
  C4                          0.01      0.01      5.73      0.01         0.01
  C7                          0.01      0.01      5.41      0.01         0.01
  

  Analysis begun on:  Fri Sep  3 19:36:12 2021
  Analysis ended on:  Fri Sep  3 19:36:12 2021
  Total elapsed time: < 1 sec