
  EPA STORM WATER MANAGEMENT MODEL - VERSION 5.1 (Build 5.3.0.dev0)
  --------------------------------------------------------------

  
  *********************************************************
  NOTE: The summary statistics displayed in this report are
  based on results found at every computational time step,  
  not just on results from each reporting time step.
  *********************************************************
  
  ****************
  Analysis Options
  ****************
  Flow Units ............... CMS
  Process Models:
    Rainfall/Runoff ........ YES
    RDII ................... NO
    Snowmelt ............... NO
    Groundwater ............ NO
    Flow Routing ........... YES
    Ponding Allowed ........ YES
    Water Quality .......... NO
  Infiltration Method ...... HORTON
  Flow Routing Method ...... DYNWAVE
  Surcharge Method ......... EXTRAN
  Starting Date ............ 08/28/2015 08:00:00
  Ending Date .............. 08/28/2015 15:50:00
  Antecedent Dry Days ...... 0.0
  Report Time Step ......... 00:01:00
  Wet Time Step ............ 00:01:00
  Dry Time Step ............ 00:01:00
  Routing Time Step ........ 5.00 sec
  Variable Time Step ....... YES
  Maximum Trials ........... 8
  Number of Threads ........ 1
  Head Tolerance ........... 0.001500 m
  
  
  **************************        Volume         Depth
  Runoff Quantity Continuity     hectare-m            mm
  **************************     ---------       -------
  Total Precipitation ......         2.725        15.122
  Evaporation Loss .........         0.000         0.000
  Infiltration Loss ........         0.000         0.000
  Surface Runoff ...........         2.701        14.990
  Final Storage ............         0.024         0.133
  Continuity Error (%) .....        -0.006
  
  
  **************************        Volume        Volume
  Flow Routing Continuity        hectare-m      10^6 ltr
  **************************     ---------     ---------
  Dry Weather Inflow .......         0.396         3.956
  Wet Weather Inflow .......         2.701        27.013
  Groundwater Inflow .......         0.000         0.000
  RDII Inflow ..............         0.000         0.000
  External Inflow ..........         0.000         0.000
  External Outflow .........         0.575         5.748
  Flooding Loss ............         1.459        14.593
  Evaporation Loss .........         0.000         0.000
  Exfiltration Loss ........         0.000         0.000
  Initial Stored Volume ....         0.000         0.000
  Final Stored Volume ......         0.805         8.054
  Continuity Error (%) .....         8.308
  
  
  *************************
  Highest Continuity Errors
  *************************
  Node T2 (22.46%)
  Node T3 (18.10%)
  Node T5 (16.96%)
  Node T4 (16.85%)
  Node T6 (10.67%)
  
  
  ***************************
  Time-Step Critical Elements
  ***************************
  None
  
  
  ********************************
  Highest Flow Instability Indexes
  ********************************
  All links are stable.
  
  
  *************************
  Routing Time Step Summary
  *************************
  Minimum Time Step           :     1.75 sec
  Average Time Step           :     5.00 sec
  Maximum Time Step           :     5.00 sec
  Percent in Steady State     :     0.00
  Average Iterations per Step :     2.18
  Percent Not Converging      :     0.60
  
  
  ***************************
  Subcatchment Runoff Summary
  ***************************
  
  ------------------------------------------------------------------------------------------------------------------------------
                            Total      Total      Total      Total     Imperv       Perv      Total       Total     Peak  Runoff
                           Precip      Runon       Evap      Infil     Runoff     Runoff     Runoff      Runoff   Runoff   Coeff
  Subcatchment                 mm         mm         mm         mm         mm         mm         mm    10^6 ltr      CMS
  ------------------------------------------------------------------------------------------------------------------------------
  SC01                      15.12       0.00       0.00       0.00      15.04       0.00      15.04        4.96     1.28   0.994
  SC02                      15.12       0.00       0.00       0.00      15.03       0.00      15.03        3.42     0.87   0.994
  SC03                      15.12       0.00       0.00       0.00      15.05       0.00      15.05        2.71     0.73   0.995
  SC04                      15.12       0.00       0.00       0.00      14.92       0.00      14.92        1.03     0.23   0.987
  SC05                      15.12       0.00       0.00       0.00      15.03       0.00      15.03        2.34     0.60   0.994
  SC06                      15.12       0.00       0.00       0.00      14.87       0.00      14.87        4.84     1.04   0.983
  SC07                      15.12       0.00       0.00       0.00      14.92       0.00      14.92        0.71     0.16   0.987
  SC08                      15.12       0.00       0.00       0.00      15.00       0.00      15.00        4.20     1.03   0.992
  SC09                      15.12       0.00       0.00       0.00      14.98       0.00      14.98        1.03     0.24   0.991
  SC010                     15.12       0.00       0.00       0.00      15.01       0.00      15.01        1.76     0.43   0.993
  
  
  ******************
  Node Depth Summary
  ******************
  
  ---------------------------------------------------------------------------------
                                 Average  Maximum  Maximum  Time of Max    Reported
                                   Depth    Depth      HGL   Occurrence   Max Depth
  Node                 Type       Meters   Meters   Meters  days hr:min      Meters
  ---------------------------------------------------------------------------------
  J1                   JUNCTION     0.09     0.26    34.26     0  02:26        0.26
  J3                   JUNCTION     0.09     0.12    18.12     0  03:24        0.12
  CSO7                 JUNCTION     0.28     1.20    35.20     0  01:55        1.20
  J5                   JUNCTION     0.08     0.19    32.19     0  02:30        0.19
  CSO9                 JUNCTION     0.40     2.00    42.00     0  02:02        2.00
  J8                   JUNCTION     0.14     0.36    36.36     0  02:31        0.36
  CSO8                 JUNCTION     0.41     2.00    34.00     0  01:59        2.00
  J10                  JUNCTION     0.12     0.33    29.33     0  02:26        0.33
  J13                  JUNCTION     0.08     0.25    29.25     0  02:26        0.25
  J15                  JUNCTION     0.19     0.43    15.43     0  02:29        0.43
  J16                  JUNCTION     0.08     0.28    30.28     0  02:26        0.27
  CSO10                JUNCTION     0.24     1.00    31.00     0  01:59        1.00
  J12                  JUNCTION     0.69     1.06    27.06     0  03:02        1.06
  J4                   JUNCTION     0.21     1.22    34.22     0  01:55        0.77
  J6                   JUNCTION     0.06     0.07    25.07     0  03:30        0.07
  J2                   JUNCTION     0.00     0.00    25.00     0  00:00        0.00
  J19                  JUNCTION     0.14     0.17     8.17     0  02:14        0.17
  J9                   JUNCTION     0.08     0.11    29.11     0  03:57        0.11
  J14                  JUNCTION     0.12     0.15    20.15     0  02:58        0.15
  J17                  JUNCTION     0.06     0.08    20.08     0  03:34        0.08
  J7                   JUNCTION     0.10     0.23    39.23     0  03:03        0.23
  J11                  JUNCTION     0.12     0.30    31.30     0  03:03        0.30
  J18                  JUNCTION     0.07     0.16    29.16     0  02:36        0.16
  Out_to_WWTP          OUTFALL      0.14     0.17     6.17     0  04:10        0.17
  T5                   STORAGE      3.85     5.00    32.00     0  02:18        5.00
  T4                   STORAGE      3.58     5.00    32.00     0  02:40        5.00
  T6                   STORAGE      3.78     5.00    36.00     0  02:14        5.00
  T3                   STORAGE      3.59     5.00    27.00     0  02:56        5.00
  T2                   STORAGE      3.64     5.00    26.00     0  02:31        5.00
  T1                   STORAGE      3.47     5.00    15.00     0  02:13        5.00
  
  
  *******************
  Node Inflow Summary
  *******************
  
  -------------------------------------------------------------------------------------------------
                                  Maximum  Maximum                  Lateral       Total        Flow
                                  Lateral    Total  Time of Max      Inflow      Inflow     Balance
                                   Inflow   Inflow   Occurrence      Volume      Volume       Error
  Node                 Type           CMS      CMS  days hr:min    10^6 ltr    10^6 ltr     Percent
  -------------------------------------------------------------------------------------------------
  J1                   JUNCTION     0.617    0.617     0  02:26        2.91        2.91       0.020
  J3                   JUNCTION     0.000    0.152     0  02:59           0        3.13       1.098
  CSO7                 JUNCTION     0.170    0.170     0  02:29       0.999       0.999       0.046
  J5                   JUNCTION     0.236    0.308     0  02:29        1.16        1.92       0.084
  CSO9                 JUNCTION     0.252    0.252     0  02:28        1.23        1.23       0.038
  J8                   JUNCTION     1.073    1.200     0  02:31        5.78        6.77       0.085
  CSO8                 JUNCTION     1.037    1.037     0  02:27        4.49        4.49       0.012
  J10                  JUNCTION     0.745    1.230     0  02:25         3.1        6.55      -0.056
  J13                  JUNCTION     0.888    0.888     0  02:26        3.89        3.89      -0.121
  J15                  JUNCTION     0.000    1.649     0  02:26           0        10.8       0.680
  J16                  JUNCTION     1.299    1.299     0  02:26        5.52        5.52      -0.027
  CSO10                JUNCTION     0.439    0.439     0  02:27         1.9         1.9       0.016
  J12                  JUNCTION     0.000    1.300     0  02:26           0        8.15       9.258
  J4                   JUNCTION     0.000    0.073     0  02:30           0       0.764       0.438
  J6                   JUNCTION     0.000    0.028     0  02:41           0       0.581       0.646
  J2                   JUNCTION     0.000    0.000     0  00:00           0           0       0.000 ltr
  J19                  JUNCTION     0.000    0.271     0  02:13           0        5.76       0.194
  J9                   JUNCTION     0.000    0.075     0  02:14           0         1.6       1.366
  J14                  JUNCTION     0.000    0.124     0  02:56           0        2.56       0.271
  J17                  JUNCTION     0.000    0.033     0  02:31           0       0.694       1.158
  J7                   JUNCTION     0.000    0.127     0  03:03           0       0.995       0.310
  J11                  JUNCTION     0.000    0.486     0  03:03           0        3.46       0.190
  J18                  JUNCTION     0.000    0.202     0  02:36           0        1.46       0.032
  Out_to_WWTP          OUTFALL      0.000    0.271     0  02:15           0        5.75       0.000
  T5                   STORAGE      0.000    0.616     0  02:26           0        2.91      20.423
  T4                   STORAGE      0.000    0.308     0  02:30           0        1.92      20.266
  T6                   STORAGE      0.000    1.199     0  02:31           0        6.77      11.945
  T3                   STORAGE      0.000    1.288     0  02:28           0        7.46      22.099
  T2                   STORAGE      0.000    0.888     0  02:26           0        3.89      28.962
  T1                   STORAGE      0.000    1.624     0  02:29           0        10.7       5.944
  
  
  **********************
  Node Surcharge Summary
  **********************
  
  Surcharging occurs when water rises above the top of the highest conduit.
  ---------------------------------------------------------------------
                                               Max. Height   Min. Depth
                                   Hours       Above Crown    Below Rim
  Node                 Type      Surcharged         Meters       Meters
  ---------------------------------------------------------------------
  CSO7                 JUNCTION        1.44          0.945        0.000
  CSO9                 JUNCTION        1.46          1.682        0.000
  CSO8                 JUNCTION        1.44          1.547        0.000
  CSO10                JUNCTION        1.20          0.560        0.000
  J4                   JUNCTION        1.41          0.916        0.784
  
  
  *********************
  Node Flooding Summary
  *********************
  
  Flooding refers to all water that overflows a node, whether it ponds or not.
  --------------------------------------------------------------------------
                                                             Total   Maximum
                                 Maximum   Time of Max       Flood    Ponded
                        Hours       Rate    Occurrence      Volume     Depth
  Node                 Flooded       CMS   days hr:min    10^6 ltr    Meters
  --------------------------------------------------------------------------
  CSO7                    1.26     0.097      0  02:29       0.235     0.000
  CSO9                    1.01     0.124      0  02:28       0.234     0.000
  CSO8                    1.05     0.551      0  02:27       1.031     0.000
  CSO10                   1.07     0.236      0  02:27       0.444     0.000
  T5                      5.53     0.616      0  02:26       1.913     0.000
  T4                      2.25     0.257      0  02:40       0.570     0.000
  T6                      2.95     1.124      0  02:31       3.933     0.000
  T3                      1.13     1.150      0  03:05       0.996     0.000
  T2                      1.85     0.815      0  02:31       1.407     0.000
  T1                      1.72     1.354      0  02:29       3.830     0.000
  
  
  **********************
  Storage Volume Summary
  **********************
  
  --------------------------------------------------------------------------------------------------
                         Average     Avg  Evap Exfil       Maximum     Max    Time of Max    Maximum
                          Volume    Pcnt  Pcnt  Pcnt        Volume    Pcnt     Occurrence    Outflow
  Storage Unit           1000 m3    Full  Loss  Loss       1000 m3    Full    days hr:min        CMS
  --------------------------------------------------------------------------------------------------
  T5                       0.385      77     0     0         0.500     100       0  02:18      0.000
  T4                       0.358      72     0     0         0.500     100       0  02:40      0.028
  T6                       0.454      76     0     0         0.600     100       0  02:14      0.075
  T3                       1.866      72     0     0         2.600     100       0  02:56      0.224
  T2                       0.729      73     0     0         1.000     100       0  02:31      0.033
  T1                       0.486      69     0     0         0.700     100       0  02:13      0.271
  
  
  ***********************
  Outfall Loading Summary
  ***********************
  
  -----------------------------------------------------------
                         Flow       Avg       Max       Total
                         Freq      Flow      Flow      Volume
  Outfall Node           Pcnt       CMS       CMS    10^6 ltr
  -----------------------------------------------------------
  Out_to_WWTP           99.01     0.206     0.271       5.748
  -----------------------------------------------------------
  System                99.01     0.206     0.271       5.748
  
  
  ********************
  Link Flow Summary
  ********************
  
  -----------------------------------------------------------------------------
                                 Maximum  Time of Max   Maximum    Max/    Max/
                                  |Flow|   Occurrence   |Veloc|    Full    Full
  Link                 Type          CMS  days hr:min     m/sec    Flow   Depth
  -----------------------------------------------------------------------------
  C1                   CONDUIT     0.000     0  00:00      0.00    0.00    0.06
  C6                   CONDUIT     0.073     0  02:30      1.29    1.16    0.81
  C2                   CONDUIT     0.028     0  03:30      0.94    0.03    0.16
  C9                   CONDUIT     0.127     0  03:03      1.30    0.43    0.59
  C16                  CONDUIT     0.488     0  02:11      1.79    0.05    0.16
  C3                   CONDUIT     0.124     0  02:59      1.88    0.05    0.14
  C19                  CONDUIT     0.033     0  03:34      0.64    0.01    0.25
  C11                  CONDUIT     0.152     0  03:24      1.56    0.01    0.14
  C20                  CONDUIT     1.298     0  02:26      3.54    0.04    0.18
  C22                  CONDUIT     0.202     0  02:36      1.61    0.09    0.37
  C12                  CONDUIT     0.075     0  03:58      0.38    0.01    0.29
  C17                  CONDUIT     1.225     0  02:26      3.30    0.06    0.33
  C10                  CONDUIT     1.199     0  02:31      1.65    0.12    0.62
  C13                  CONDUIT     1.288     0  02:28      1.40    0.08    0.77
  C18                  CONDUIT     0.888     0  02:26      1.72    0.03    0.56
  C23                  CONDUIT     1.624     0  02:29      1.49    0.18    0.64
  C4                   CONDUIT     0.616     0  02:26      1.97    0.15    0.63
  C7                   CONDUIT     0.308     0  02:30      1.41    0.08    0.59
  C14                  CONDUIT     0.271     0  02:15      2.08    0.02    0.09
  C5                   CONDUIT     0.073     0  02:30      1.42    1.24    1.00
  C8                   CONDUIT     0.127     0  03:03      1.75    1.60    0.86
  C15                  CONDUIT     0.486     0  03:03      3.42    1.55    0.83
  C21                  CONDUIT     0.202     0  02:36      1.82    1.16    0.69
  V4                   ORIFICE     0.028     0  02:41                      0.35
  V5                   ORIFICE     0.000     0  00:00                      0.00
  V1                   ORIFICE     0.271     0  02:13                      1.00
  V6                   ORIFICE     0.075     0  02:14                      0.43
  V3                   ORIFICE     0.124     0  02:56                      0.65
  V2                   ORIFICE     0.033     0  02:31                      0.24
  
  
  ***************************
  Flow Classification Summary
  ***************************
  
  -------------------------------------------------------------------------------------
                      Adjusted    ---------- Fraction of Time in Flow Class ---------- 
                       /Actual         Up    Down  Sub   Sup   Up    Down  Norm  Inlet 
  Conduit               Length    Dry  Dry   Dry   Crit  Crit  Crit  Crit  Ltd   Ctrl  
  -------------------------------------------------------------------------------------
  C1                      1.00   0.21  0.79  0.00  0.00  0.00  0.00  0.00  0.00  0.00
  C6                      1.00   0.00  0.00  0.00  0.21  0.79  0.00  0.00  0.00  0.00
  C2                      1.00   0.21  0.00  0.00  0.00  0.79  0.00  0.00  0.77  0.00
  C9                      1.00   0.00  0.00  0.00  1.00  0.00  0.00  0.00  1.00  0.00
  C16                     1.00   0.00  0.00  0.00  0.55  0.45  0.00  0.00  0.46  0.00
  C3                      1.00   0.21  0.00  0.00  0.00  0.79  0.00  0.00  0.00  0.00
  C19                     1.00   0.00  0.21  0.00  0.79  0.00  0.00  0.00  0.79  0.00
  C11                     1.00   0.00  0.21  0.00  0.21  0.57  0.00  0.00  0.79  0.00
  C20                     1.00   0.00  0.00  0.00  0.54  0.46  0.00  0.00  0.97  0.00
  C22                     1.00   0.00  0.00  0.00  0.77  0.23  0.00  0.00  1.00  0.00
  C12                     1.00   0.00  0.21  0.00  0.79  0.00  0.00  0.00  0.79  0.00
  C17                     1.00   0.00  0.00  0.00  0.65  0.35  0.00  0.00  0.91  0.00
  C10                     1.00   0.00  0.00  0.00  0.97  0.03  0.00  0.00  0.98  0.00
  C13                     1.00   0.00  0.00  0.00  0.85  0.15  0.00  0.00  0.24  0.00
  C18                     1.00   0.00  0.00  0.00  0.95  0.05  0.00  0.00  0.97  0.00
  C23                     1.00   0.00  0.00  0.00  0.82  0.18  0.00  0.00  0.94  0.00
  C4                      1.00   0.00  0.00  0.00  0.97  0.03  0.00  0.00  0.98  0.00
  C7                      1.00   0.00  0.00  0.00  0.95  0.05  0.00  0.00  0.97  0.00
  C14                     1.00   0.00  0.00  0.00  0.00  0.99  0.00  0.00  0.23  0.00
  C5                      1.00   0.00  0.00  0.00  0.91  0.09  0.00  0.00  0.79  0.00
  C8                      1.00   0.00  0.00  0.00  0.22  0.78  0.00  0.00  0.00  0.00
  C15                     1.00   0.00  0.00  0.00  0.00  1.00  0.00  0.00  0.00  0.00
  C21                     1.00   0.00  0.00  0.00  0.00  1.00  0.00  0.00  0.00  0.00
  
  
  *************************
  Conduit Surcharge Summary
  *************************
  
  ----------------------------------------------------------------------------
                                                           Hours        Hours 
                         --------- Hours Full --------   Above Full   Capacity
  Conduit                Both Ends  Upstream  Dnstream   Normal Flow   Limited
  ----------------------------------------------------------------------------
  C6                          0.01      1.41      0.01      1.31         0.01
  C10                         0.01      0.01      6.15      0.01         0.01
  C13                         0.01      0.01      5.69      0.01         0.01
  C18                         0.01      0.01      5.81      0.01         0.01
  C23                         0.01      0.01      6.08      0.01         0.01
  C4                          0.01      0.01      6.30      0.01         0.01
  C7                          0.01      0.01      6.07      0.01         0.01
  C5                          1.43      1.44      1.53      1.49         1.40
  C8                          0.01      1.46      0.01      1.48         0.01
  C15                         0.01      1.44      0.01      1.50         0.01
  C21                         0.01      1.20      0.01      1.20         0.01
  

  Analysis begun on:  Fri Sep  3 20:09:57 2021
  Analysis ended on:  Fri Sep  3 20:09:57 2021
  Total elapsed time: < 1 sec