
  EPA STORM WATER MANAGEMENT MODEL - VERSION 5.1 (Build 5.3.0.dev0)
  --------------------------------------------------------------

  
  *********************************************************
  NOTE: The summary statistics displayed in this report are
  based on results found at every computational time step,  
  not just on results from each reporting time step.
  *********************************************************
  
  ****************
  Analysis Options
  ****************
  Flow Units ............... CMS
  Process Models:
    Rainfall/Runoff ........ YES
    RDII ................... NO
    Snowmelt ............... NO
    Groundwater ............ NO
    Flow Routing ........... YES
    Ponding Allowed ........ YES
    Water Quality .......... NO
  Infiltration Method ...... HORTON
  Flow Routing Method ...... DYNWAVE
  Surcharge Method ......... EXTRAN
  Starting Date ............ 08/28/2015 08:00:00
  Ending Date .............. 08/28/2015 15:50:00
  Antecedent Dry Days ...... 0.0
  Report Time Step ......... 00:01:00
  Wet Time Step ............ 00:01:00
  Dry Time Step ............ 00:01:00
  Routing Time Step ........ 5.00 sec
  Variable Time Step ....... YES
  Maximum Trials ........... 8
  Number of Threads ........ 1
  Head Tolerance ........... 0.001500 m
  
  
  **************************        Volume         Depth
  Runoff Quantity Continuity     hectare-m            mm
  **************************     ---------       -------
  Total Precipitation ......         1.924        10.677
  Evaporation Loss .........         0.000         0.000
  Infiltration Loss ........         0.000         0.000
  Surface Runoff ...........         1.901        10.550
  Final Storage ............         0.023         0.128
  Continuity Error (%) .....        -0.007
  
  
  **************************        Volume        Volume
  Flow Routing Continuity        hectare-m      10^6 ltr
  **************************     ---------     ---------
  Dry Weather Inflow .......         0.396         3.955
  Wet Weather Inflow .......         1.901        19.011
  Groundwater Inflow .......         0.000         0.000
  RDII Inflow ..............         0.000         0.000
  External Inflow ..........         0.000         0.000
  External Outflow .........         0.577         5.767
  Flooding Loss ............         0.685         6.846
  Evaporation Loss .........         0.000         0.000
  Exfiltration Loss ........         0.000         0.000
  Initial Stored Volume ....         0.000         0.000
  Final Stored Volume ......         0.782         7.824
  Continuity Error (%) .....        11.015
  
  
  *************************
  Highest Continuity Errors
  *************************
  Node T2 (30.29%)
  Node T5 (22.34%)
  Node T4 (20.53%)
  Node T3 (20.48%)
  Node T6 (13.61%)
  
  
  ***************************
  Time-Step Critical Elements
  ***************************
  None
  
  
  ********************************
  Highest Flow Instability Indexes
  ********************************
  Link C13 (2)
  
  
  *************************
  Routing Time Step Summary
  *************************
  Minimum Time Step           :     4.50 sec
  Average Time Step           :     5.00 sec
  Maximum Time Step           :     5.00 sec
  Percent in Steady State     :     0.00
  Average Iterations per Step :     2.18
  Percent Not Converging      :     0.30
  
  
  ***************************
  Subcatchment Runoff Summary
  ***************************
  
  ------------------------------------------------------------------------------------------------------------------------------
                            Total      Total      Total      Total     Imperv       Perv      Total       Total     Peak  Runoff
                           Precip      Runon       Evap      Infil     Runoff     Runoff     Runoff      Runoff   Runoff   Coeff
  Subcatchment                 mm         mm         mm         mm         mm         mm         mm    10^6 ltr      CMS
  ------------------------------------------------------------------------------------------------------------------------------
  SC01                      10.68       0.00       0.00       0.00      10.59       0.00      10.59        3.50     0.86   0.992
  SC02                      10.68       0.00       0.00       0.00      10.59       0.00      10.59        2.41     0.58   0.992
  SC03                      10.68       0.00       0.00       0.00      10.61       0.00      10.61        1.91     0.50   0.994
  SC04                      10.68       0.00       0.00       0.00      10.49       0.00      10.49        0.72     0.14   0.982
  SC05                      10.68       0.00       0.00       0.00      10.59       0.00      10.59        1.65     0.40   0.992
  SC06                      10.68       0.00       0.00       0.00      10.44       0.00      10.44        3.40     0.63   0.977
  SC07                      10.68       0.00       0.00       0.00      10.49       0.00      10.49        0.50     0.10   0.982
  SC08                      10.68       0.00       0.00       0.00      10.56       0.00      10.56        2.96     0.67   0.989
  SC09                      10.68       0.00       0.00       0.00      10.54       0.00      10.54        0.73     0.16   0.987
  SC010                     10.68       0.00       0.00       0.00      10.57       0.00      10.57        1.24     0.28   0.990
  
  
  ******************
  Node Depth Summary
  ******************
  
  ---------------------------------------------------------------------------------
                                 Average  Maximum  Maximum  Time of Max    Reported
                                   Depth    Depth      HGL   Occurrence   Max Depth
  Node                 Type       Meters   Meters   Meters  days hr:min      Meters
  ---------------------------------------------------------------------------------
  J1                   JUNCTION     0.08     0.21    34.21     0  01:54        0.21
  J3                   JUNCTION     0.09     0.12    18.12     0  04:32        0.12
  CSO7                 JUNCTION     0.25     1.20    35.20     0  01:46        1.20
  J5                   JUNCTION     0.07     0.16    32.16     0  02:01        0.16
  CSO9                 JUNCTION     0.30     2.00    42.00     0  01:46        2.00
  J8                   JUNCTION     0.12     0.29    36.29     0  02:02        0.29
  CSO8                 JUNCTION     0.32     2.00    34.00     0  01:44        2.00
  J10                  JUNCTION     0.11     0.30    29.30     0  01:54        0.30
  J13                  JUNCTION     0.07     0.21    29.21     0  01:54        0.21
  J15                  JUNCTION     0.18     0.36    15.36     0  01:59        0.36
  J16                  JUNCTION     0.08     0.23    30.23     0  01:54        0.23
  CSO10                JUNCTION     0.19     1.00    31.00     0  01:42        1.00
  J12                  JUNCTION     0.58     0.89    26.89     0  04:34        0.89
  J4                   JUNCTION     0.20     1.50    34.50     0  01:46        0.75
  J6                   JUNCTION     0.06     0.07    25.07     0  03:40        0.07
  J2                   JUNCTION     0.00     0.00    25.00     0  00:00        0.00
  J19                  JUNCTION     0.14     0.17     8.17     0  02:06        0.17
  J9                   JUNCTION     0.08     0.11    29.11     0  03:42        0.11
  J14                  JUNCTION     0.12     0.15    20.15     0  04:30        0.15
  J17                  JUNCTION     0.06     0.08    20.08     0  03:40        0.08
  J7                   JUNCTION     0.09     0.23    39.23     0  02:17        0.23
  J11                  JUNCTION     0.11     0.30    31.30     0  02:18        0.30
  J18                  JUNCTION     0.06     0.16    29.16     0  02:18        0.16
  Out_to_WWTP          OUTFALL      0.14     0.17     6.17     0  04:00        0.17
  T5                   STORAGE      3.90     5.00    32.00     0  02:11        5.00
  T4                   STORAGE      3.59     5.00    32.00     0  02:52        5.00
  T6                   STORAGE      3.81     5.00    36.00     0  02:06        5.00
  T3                   STORAGE      3.51     4.89    26.89     0  04:29        4.89
  T2                   STORAGE      3.67     5.00    26.00     0  02:43        5.00
  T1                   STORAGE      3.49     5.00    15.00     0  02:04        5.00
  
  
  *******************
  Node Inflow Summary
  *******************
  
  -------------------------------------------------------------------------------------------------
                                  Maximum  Maximum                  Lateral       Total        Flow
                                  Lateral    Total  Time of Max      Inflow      Inflow     Balance
                                   Inflow   Inflow   Occurrence      Volume      Volume       Error
  Node                 Type           CMS      CMS  days hr:min    10^6 ltr    10^6 ltr     Percent
  -------------------------------------------------------------------------------------------------
  J1                   JUNCTION     0.416    0.416     0  01:54        2.21        2.21       0.029
  J3                   JUNCTION     0.000    0.150     0  04:30           0        3.11       1.104
  CSO7                 JUNCTION     0.110    0.110     0  02:00       0.789       0.789       0.059
  J5                   JUNCTION     0.149    0.220     0  02:00       0.851        1.56       0.103
  CSO9                 JUNCTION     0.164    0.164     0  01:57       0.923       0.923       0.034
  J8                   JUNCTION     0.669    0.796     0  02:01        4.34        5.22       0.107
  CSO8                 JUNCTION     0.683    0.683     0  01:56        3.25        3.25       0.013
  J10                  JUNCTION     0.508    0.994     0  01:53         2.3        5.31      -0.009
  J13                  JUNCTION     0.597    0.597     0  01:54        2.88        2.88      -0.174
  J15                  JUNCTION     0.000    1.160     0  01:55           0         9.1       0.791
  J16                  JUNCTION     0.875    0.875     0  01:54        4.05        4.05      -0.030
  CSO10                JUNCTION     0.289    0.289     0  01:55        1.38        1.38       0.013
  J12                  JUNCTION     0.000    1.037     0  01:55           0        7.03       8.525
  J4                   JUNCTION     0.000    0.078     0  01:46           0       0.716       0.454
  J6                   JUNCTION     0.000    0.028     0  02:52           0       0.583       0.641
  J2                   JUNCTION     0.000    0.000     0  00:00           0           0       0.000 ltr
  J19                  JUNCTION     0.000    0.271     0  02:04           0        5.78       0.192
  J9                   JUNCTION     0.000    0.075     0  02:06           0        1.61       1.403
  J14                  JUNCTION     0.000    0.122     0  04:30           0        2.54       0.271
  J17                  JUNCTION     0.000    0.033     0  02:43           0       0.698       1.178
  J7                   JUNCTION     0.000    0.127     0  02:17           0       0.881       0.355
  J11                  JUNCTION     0.000    0.486     0  02:18           0        3.02       0.214
  J18                  JUNCTION     0.000    0.202     0  02:18           0        1.28       0.037
  Out_to_WWTP          OUTFALL      0.000    0.271     0  02:06           0        5.77       0.000
  T5                   STORAGE      0.000    0.416     0  01:54           0        2.21      28.767
  T4                   STORAGE      0.000    0.220     0  02:01           0        1.56      25.827
  T6                   STORAGE      0.000    0.795     0  02:02           0        5.21      15.755
  T3                   STORAGE      0.000    1.028     0  01:57           0        6.48      25.762
  T2                   STORAGE      0.000    0.596     0  01:54           0        2.88      43.448
  T1                   STORAGE      0.000    1.142     0  01:59           0        9.02       6.955
  
  
  **********************
  Node Surcharge Summary
  **********************
  
  Surcharging occurs when water rises above the top of the highest conduit.
  ---------------------------------------------------------------------
                                               Max. Height   Min. Depth
                                   Hours       Above Crown    Below Rim
  Node                 Type      Surcharged         Meters       Meters
  ---------------------------------------------------------------------
  CSO7                 JUNCTION        1.35          0.945        0.000
  CSO9                 JUNCTION        1.21          1.682        0.000
  CSO8                 JUNCTION        1.11          1.547        0.000
  CSO10                JUNCTION        0.82          0.560        0.000
  J4                   JUNCTION        1.33          1.203        0.497
  
  
  *********************
  Node Flooding Summary
  *********************
  
  Flooding refers to all water that overflows a node, whether it ponds or not.
  --------------------------------------------------------------------------
                                                             Total   Maximum
                                 Maximum   Time of Max       Flood    Ponded
                        Hours       Rate    Occurrence      Volume     Depth
  Node                 Flooded       CMS   days hr:min    10^6 ltr    Meters
  --------------------------------------------------------------------------
  CSO7                    0.89     0.039      0  02:00       0.072     0.000
  CSO9                    0.52     0.037      0  01:57       0.042     0.000
  CSO8                    0.57     0.197      0  01:56       0.231     0.000
  CSO10                   0.58     0.087      0  01:55       0.104     0.000
  T5                      5.65     0.325      0  02:11       1.219     0.000
  T4                      1.83     0.111      0  02:52       0.220     0.000
  T6                      2.93     0.714      0  02:06       2.390     0.000
  T2                      1.51     0.218      0  02:43       0.396     0.000
  T1                      1.71     0.836      0  02:04       2.171     0.000
  
  
  **********************
  Storage Volume Summary
  **********************
  
  --------------------------------------------------------------------------------------------------
                         Average     Avg  Evap Exfil       Maximum     Max    Time of Max    Maximum
                          Volume    Pcnt  Pcnt  Pcnt        Volume    Pcnt     Occurrence    Outflow
  Storage Unit           1000 m3    Full  Loss  Loss       1000 m3    Full    days hr:min        CMS
  --------------------------------------------------------------------------------------------------
  T5                       0.390      78     0     0         0.500     100       0  02:11      0.000
  T4                       0.359      72     0     0         0.500     100       0  02:52      0.028
  T6                       0.457      76     0     0         0.600     100       0  02:06      0.075
  T3                       1.825      70     0     0         2.543      98       0  04:29      0.231
  T2                       0.735      73     0     0         1.000     100       0  02:43      0.033
  T1                       0.488      70     0     0         0.700     100       0  02:04      0.271
  
  
  ***********************
  Outfall Loading Summary
  ***********************
  
  -----------------------------------------------------------
                         Flow       Avg       Max       Total
                         Freq      Flow      Flow      Volume
  Outfall Node           Pcnt       CMS       CMS    10^6 ltr
  -----------------------------------------------------------
  Out_to_WWTP           99.01     0.207     0.271       5.767
  -----------------------------------------------------------
  System                99.01     0.207     0.271       5.767
  
  
  ********************
  Link Flow Summary
  ********************
  
  -----------------------------------------------------------------------------
                                 Maximum  Time of Max   Maximum    Max/    Max/
                                  |Flow|   Occurrence   |Veloc|    Full    Full
  Link                 Type          CMS  days hr:min     m/sec    Flow   Depth
  -----------------------------------------------------------------------------
  C1                   CONDUIT     0.000     0  00:00      0.00    0.00    0.06
  C6                   CONDUIT     0.071     0  02:00      1.29    1.14    0.76
  C2                   CONDUIT     0.028     0  03:40      0.96    0.03    0.16
  C9                   CONDUIT     0.127     0  02:17      1.30    0.43    0.52
  C16                  CONDUIT     0.489     0  01:50      1.79    0.05    0.15
  C3                   CONDUIT     0.122     0  04:30      1.87    0.05    0.14
  C19                  CONDUIT     0.033     0  03:40      0.65    0.01    0.21
  C11                  CONDUIT     0.150     0  04:32      1.55    0.01    0.11
  C20                  CONDUIT     0.874     0  01:54      3.18    0.03    0.15
  C22                  CONDUIT     0.202     0  02:19      1.67    0.09    0.33
  C12                  CONDUIT     0.075     0  03:42      0.51    0.01    0.25
  C17                  CONDUIT     0.991     0  01:54      3.16    0.05    0.24
  C10                  CONDUIT     0.795     0  02:02      1.65    0.08    0.60
  C13                  CONDUIT     1.028     0  01:57      1.43    0.06    0.72
  C18                  CONDUIT     0.596     0  01:54      1.72    0.02    0.55
  C23                  CONDUIT     1.142     0  01:59      1.51    0.13    0.62
  C4                   CONDUIT     0.416     0  01:54      1.97    0.10    0.61
  C7                   CONDUIT     0.220     0  02:01      1.41    0.05    0.58
  C14                  CONDUIT     0.271     0  02:06      2.08    0.02    0.09
  C5                   CONDUIT     0.078     0  01:46      1.52    1.33    1.00
  C8                   CONDUIT     0.127     0  02:17      1.76    1.60    0.86
  C15                  CONDUIT     0.486     0  02:18      3.43    1.55    0.83
  C21                  CONDUIT     0.202     0  02:18      1.83    1.16    0.69
  V4                   ORIFICE     0.028     0  02:52                      0.35
  V5                   ORIFICE     0.000     0  00:00                      0.00
  V1                   ORIFICE     0.271     0  02:04                      1.00
  V6                   ORIFICE     0.075     0  02:06                      0.43
  V3                   ORIFICE     0.122     0  04:30                      0.65
  V2                   ORIFICE     0.033     0  02:43                      0.24
  
  
  ***************************
  Flow Classification Summary
  ***************************
  
  -------------------------------------------------------------------------------------
                      Adjusted    ---------- Fraction of Time in Flow Class ---------- 
                       /Actual         Up    Down  Sub   Sup   Up    Down  Norm  Inlet 
  Conduit               Length    Dry  Dry   Dry   Crit  Crit  Crit  Crit  Ltd   Ctrl  
  -------------------------------------------------------------------------------------
  C1                      1.00   0.21  0.79  0.00  0.00  0.00  0.00  0.00  0.00  0.00
  C6                      1.00   0.00  0.00  0.00  0.19  0.81  0.00  0.00  0.00  0.00
  C2                      1.00   0.21  0.00  0.00  0.00  0.79  0.00  0.00  0.77  0.00
  C9                      1.00   0.00  0.00  0.00  1.00  0.00  0.00  0.00  1.00  0.00
  C16                     1.00   0.00  0.00  0.00  0.57  0.43  0.00  0.00  0.48  0.00
  C3                      1.00   0.21  0.00  0.00  0.00  0.79  0.00  0.00  0.00  0.00
  C19                     1.00   0.00  0.21  0.00  0.79  0.00  0.00  0.00  0.79  0.00
  C11                     1.00   0.00  0.21  0.00  0.20  0.59  0.00  0.00  0.79  0.00
  C20                     1.00   0.00  0.00  0.00  0.56  0.44  0.00  0.00  0.97  0.00
  C22                     1.00   0.00  0.00  0.00  0.72  0.28  0.00  0.00  1.00  0.00
  C12                     1.00   0.00  0.21  0.00  0.79  0.00  0.00  0.00  0.79  0.00
  C17                     1.00   0.00  0.00  0.00  0.64  0.36  0.00  0.00  0.90  0.00
  C10                     1.00   0.00  0.00  0.00  0.97  0.03  0.00  0.00  0.98  0.00
  C13                     1.00   0.00  0.00  0.00  0.85  0.15  0.00  0.00  0.25  0.00
  C18                     1.00   0.00  0.00  0.00  0.95  0.05  0.00  0.00  0.97  0.00
  C23                     1.00   0.00  0.00  0.00  0.82  0.18  0.00  0.00  0.94  0.00
  C4                      1.00   0.00  0.00  0.00  0.97  0.03  0.00  0.00  0.98  0.00
  C7                      1.00   0.00  0.00  0.00  0.95  0.05  0.00  0.00  0.97  0.00
  C14                     1.00   0.00  0.00  0.00  0.00  0.99  0.00  0.00  0.23  0.00
  C5                      1.00   0.00  0.00  0.00  0.91  0.09  0.00  0.00  0.81  0.00
  C8                      1.00   0.00  0.00  0.00  0.20  0.80  0.00  0.00  0.00  0.00
  C15                     1.00   0.00  0.00  0.00  0.00  1.00  0.00  0.00  0.00  0.00
  C21                     1.00   0.00  0.00  0.00  0.01  0.99  0.00  0.00  0.00  0.00
  
  
  *************************
  Conduit Surcharge Summary
  *************************
  
  ----------------------------------------------------------------------------
                                                           Hours        Hours 
                         --------- Hours Full --------   Above Full   Capacity
  Conduit                Both Ends  Upstream  Dnstream   Normal Flow   Limited
  ----------------------------------------------------------------------------
  C6                          0.01      1.33      0.01      1.03         0.01
  C10                         0.01      0.01      6.17      0.01         0.01
  C13                         0.01      0.01      5.80      0.01         0.01
  C18                         0.01      0.01      5.93      0.01         0.01
  C23                         0.01      0.01      6.12      0.01         0.01
  C4                          0.01      0.01      6.31      0.01         0.01
  C7                          0.01      0.01      6.11      0.01         0.01
  C5                          1.33      1.35      1.43      1.38         1.30
  C8                          0.01      1.21      0.01      1.19         0.01
  C15                         0.01      1.11      0.01      1.17         0.01
  C21                         0.01      0.82      0.01      0.77         0.01
  

  Analysis begun on:  Fri Sep  3 20:13:52 2021
  Analysis ended on:  Fri Sep  3 20:13:52 2021
  Total elapsed time: < 1 sec