
  EPA STORM WATER MANAGEMENT MODEL - VERSION 5.1 (Build 5.3.0.dev0)
  --------------------------------------------------------------

  
  *********************************************************
  NOTE: The summary statistics displayed in this report are
  based on results found at every computational time step,  
  not just on results from each reporting time step.
  *********************************************************
  
  ****************
  Analysis Options
  ****************
  Flow Units ............... CMS
  Process Models:
    Rainfall/Runoff ........ YES
    RDII ................... NO
    Snowmelt ............... NO
    Groundwater ............ NO
    Flow Routing ........... YES
    Ponding Allowed ........ YES
    Water Quality .......... NO
  Infiltration Method ...... HORTON
  Flow Routing Method ...... DYNWAVE
  Surcharge Method ......... EXTRAN
  Starting Date ............ 08/28/2015 08:00:00
  Ending Date .............. 08/28/2015 15:50:00
  Antecedent Dry Days ...... 0.0
  Report Time Step ......... 00:01:00
  Wet Time Step ............ 00:01:00
  Dry Time Step ............ 00:01:00
  Routing Time Step ........ 5.00 sec
  Variable Time Step ....... YES
  Maximum Trials ........... 8
  Number of Threads ........ 1
  Head Tolerance ........... 0.001500 m
  
  
  **************************        Volume         Depth
  Runoff Quantity Continuity     hectare-m            mm
  **************************     ---------       -------
  Total Precipitation ......         1.723         9.562
  Evaporation Loss .........         0.000         0.000
  Infiltration Loss ........         0.000         0.000
  Surface Runoff ...........         1.700         9.432
  Final Storage ............         0.024         0.131
  Continuity Error (%) .....        -0.006
  
  
  **************************        Volume        Volume
  Flow Routing Continuity        hectare-m      10^6 ltr
  **************************     ---------     ---------
  Dry Weather Inflow .......         0.396         3.955
  Wet Weather Inflow .......         1.700        16.996
  Groundwater Inflow .......         0.000         0.000
  RDII Inflow ..............         0.000         0.000
  External Inflow ..........         0.000         0.000
  External Outflow .........         0.549         5.491
  Flooding Loss ............         0.543         5.434
  Evaporation Loss .........         0.000         0.000
  Exfiltration Loss ........         0.000         0.000
  Initial Stored Volume ....         0.000         0.000
  Final Stored Volume ......         0.754         7.536
  Continuity Error (%) .....        11.887
  
  
  *************************
  Highest Continuity Errors
  *************************
  Node T2 (33.21%)
  Node T5 (24.22%)
  Node T4 (22.34%)
  Node T3 (20.01%)
  Node T6 (14.99%)
  
  
  ***************************
  Time-Step Critical Elements
  ***************************
  None
  
  
  ********************************
  Highest Flow Instability Indexes
  ********************************
  Link C13 (2)
  
  
  *************************
  Routing Time Step Summary
  *************************
  Minimum Time Step           :     4.50 sec
  Average Time Step           :     5.00 sec
  Maximum Time Step           :     5.00 sec
  Percent in Steady State     :     0.00
  Average Iterations per Step :     2.19
  Percent Not Converging      :     0.57
  
  
  ***************************
  Subcatchment Runoff Summary
  ***************************
  
  ------------------------------------------------------------------------------------------------------------------------------
                            Total      Total      Total      Total     Imperv       Perv      Total       Total     Peak  Runoff
                           Precip      Runon       Evap      Infil     Runoff     Runoff     Runoff      Runoff   Runoff   Coeff
  Subcatchment                 mm         mm         mm         mm         mm         mm         mm    10^6 ltr      CMS
  ------------------------------------------------------------------------------------------------------------------------------
  SC01                       9.56       0.00       0.00       0.00       9.48       0.00       9.48        3.13     0.79   0.991
  SC02                       9.56       0.00       0.00       0.00       9.47       0.00       9.47        2.15     0.54   0.990
  SC03                       9.56       0.00       0.00       0.00       9.49       0.00       9.49        1.71     0.45   0.993
  SC04                       9.56       0.00       0.00       0.00       9.37       0.00       9.37        0.65     0.14   0.980
  SC05                       9.56       0.00       0.00       0.00       9.47       0.00       9.47        1.48     0.37   0.990
  SC06                       9.56       0.00       0.00       0.00       9.31       0.00       9.31        3.03     0.62   0.974
  SC07                       9.56       0.00       0.00       0.00       9.37       0.00       9.37        0.45     0.10   0.980
  SC08                       9.56       0.00       0.00       0.00       9.45       0.00       9.45        2.64     0.63   0.988
  SC09                       9.56       0.00       0.00       0.00       9.42       0.00       9.42        0.65     0.15   0.985
  SC010                      9.56       0.00       0.00       0.00       9.45       0.00       9.45        1.11     0.27   0.988
  
  
  ******************
  Node Depth Summary
  ******************
  
  ---------------------------------------------------------------------------------
                                 Average  Maximum  Maximum  Time of Max    Reported
                                   Depth    Depth      HGL   Occurrence   Max Depth
  Node                 Type       Meters   Meters   Meters  days hr:min      Meters
  ---------------------------------------------------------------------------------
  J1                   JUNCTION     0.08     0.21    34.21     0  02:31        0.21
  J3                   JUNCTION     0.09     0.12    18.12     0  04:47        0.12
  CSO7                 JUNCTION     0.21     1.20    35.20     0  02:18        1.20
  J5                   JUNCTION     0.07     0.16    32.16     0  02:35        0.16
  CSO9                 JUNCTION     0.28     2.00    42.00     0  02:23        2.00
  J8                   JUNCTION     0.12     0.29    36.29     0  02:37        0.29
  CSO8                 JUNCTION     0.29     2.00    34.00     0  02:22        2.00
  J10                  JUNCTION     0.10     0.30    29.30     0  02:30        0.30
  J13                  JUNCTION     0.07     0.20    29.20     0  02:31        0.20
  J15                  JUNCTION     0.17     0.36    15.36     0  02:35        0.36
  J16                  JUNCTION     0.07     0.22    30.22     0  02:31        0.22
  CSO10                JUNCTION     0.18     1.00    31.00     0  02:21        1.00
  J12                  JUNCTION     0.43     0.68    26.68     0  04:41        0.68
  J4                   JUNCTION     0.18     1.22    34.22     0  02:18        0.80
  J6                   JUNCTION     0.05     0.07    25.07     0  04:02        0.07
  J2                   JUNCTION     0.00     0.00    25.00     0  00:00        0.00
  J19                  JUNCTION     0.14     0.17     8.17     0  02:35        0.17
  J9                   JUNCTION     0.08     0.11    29.11     0  04:06        0.11
  J14                  JUNCTION     0.11     0.15    20.15     0  04:37        0.15
  J17                  JUNCTION     0.05     0.08    20.08     0  04:02        0.08
  J7                   JUNCTION     0.09     0.23    39.23     0  02:50        0.23
  J11                  JUNCTION     0.11     0.30    31.30     0  02:51        0.30
  J18                  JUNCTION     0.06     0.16    29.16     0  02:51        0.16
  Out_to_WWTP          OUTFALL      0.14     0.17     6.17     0  04:03        0.17
  T5                   STORAGE      3.70     5.00    32.00     0  02:37        5.00
  T4                   STORAGE      3.40     5.00    32.00     0  03:14        5.00
  T6                   STORAGE      3.64     5.00    36.00     0  02:32        5.00
  T3                   STORAGE      3.19     4.69    26.69     0  04:36        4.69
  T2                   STORAGE      3.45     5.00    26.00     0  03:06        5.00
  T1                   STORAGE      3.25     5.00    15.00     0  02:33        5.00
  
  
  *******************
  Node Inflow Summary
  *******************
  
  -------------------------------------------------------------------------------------------------
                                  Maximum  Maximum                  Lateral       Total        Flow
                                  Lateral    Total  Time of Max      Inflow      Inflow     Balance
                                   Inflow   Inflow   Occurrence      Volume      Volume       Error
  Node                 Type           CMS      CMS  days hr:min    10^6 ltr    10^6 ltr     Percent
  -------------------------------------------------------------------------------------------------
  J1                   JUNCTION     0.387    0.387     0  02:31        2.04        2.04       0.037
  J3                   JUNCTION     0.000    0.148     0  04:37           0        2.88       1.166
  CSO7                 JUNCTION     0.106    0.106     0  02:35       0.735       0.735       0.063
  J5                   JUNCTION     0.144    0.215     0  02:35       0.774        1.44       0.120
  CSO9                 JUNCTION     0.156    0.156     0  02:33       0.846       0.846       0.054
  J8                   JUNCTION     0.654    0.781     0  02:36        3.97        4.79       0.126
  CSO8                 JUNCTION     0.637    0.637     0  02:32        2.94        2.94       0.014
  J10                  JUNCTION     0.467    0.955     0  02:29        2.09        4.87       0.021
  J13                  JUNCTION     0.553    0.553     0  02:31        2.62        2.62      -0.142
  J15                  JUNCTION     0.000    1.131     0  02:31           0        8.35       0.873
  J16                  JUNCTION     0.808    0.808     0  02:31        3.68        3.68      -0.025
  CSO10                JUNCTION     0.270    0.270     0  02:32        1.25        1.25       0.027
  J12                  JUNCTION     0.000    1.022     0  02:31           0        6.73       6.138
  J4                   JUNCTION     0.000    0.073     0  02:18           0       0.674       0.499
  J6                   JUNCTION     0.000    0.028     0  03:14           0       0.548       0.681
  J2                   JUNCTION     0.000    0.000     0  00:00           0           0       0.000 ltr
  J19                  JUNCTION     0.000    0.271     0  02:33           0         5.5       0.201
  J9                   JUNCTION     0.000    0.075     0  02:32           0        1.52       1.418
  J14                  JUNCTION     0.000    0.120     0  04:36           0        2.34       0.287
  J17                  JUNCTION     0.000    0.033     0  03:06           0       0.654       1.202
  J7                   JUNCTION     0.000    0.127     0  02:50           0       0.818       0.381
  J11                  JUNCTION     0.000    0.486     0  02:51           0        2.78       0.226
  J18                  JUNCTION     0.000    0.202     0  02:51           0        1.18       0.046
  Out_to_WWTP          OUTFALL      0.000    0.271     0  02:35           0        5.49       0.000
  T5                   STORAGE      0.000    0.387     0  02:31           0        2.04      31.967
  T4                   STORAGE      0.000    0.215     0  02:35           0        1.44      28.765
  T6                   STORAGE      0.000    0.780     0  02:37           0        4.78      17.639
  T3                   STORAGE      0.000    1.013     0  02:33           0        6.34      25.022
  T2                   STORAGE      0.000    0.552     0  02:31           0        2.63      49.719
  T1                   STORAGE      0.000    1.116     0  02:35           0        8.28       7.545
  
  
  **********************
  Node Surcharge Summary
  **********************
  
  Surcharging occurs when water rises above the top of the highest conduit.
  ---------------------------------------------------------------------
                                               Max. Height   Min. Depth
                                   Hours       Above Crown    Below Rim
  Node                 Type      Surcharged         Meters       Meters
  ---------------------------------------------------------------------
  CSO7                 JUNCTION        0.94          0.945        0.000
  CSO9                 JUNCTION        0.96          1.682        0.000
  CSO8                 JUNCTION        0.92          1.547        0.000
  CSO10                JUNCTION        0.71          0.560        0.000
  J4                   JUNCTION        0.91          0.925        0.775
  
  
  *********************
  Node Flooding Summary
  *********************
  
  Flooding refers to all water that overflows a node, whether it ponds or not.
  --------------------------------------------------------------------------
                                                             Total   Maximum
                                 Maximum   Time of Max       Flood    Ponded
                        Hours       Rate    Occurrence      Volume     Depth
  Node                 Flooded       CMS   days hr:min    10^6 ltr    Meters
  --------------------------------------------------------------------------
  CSO7                    0.77     0.035      0  02:35       0.061     0.000
  CSO9                    0.45     0.028      0  02:33       0.028     0.000
  CSO8                    0.49     0.152      0  02:32       0.157     0.000
  CSO10                   0.51     0.068      0  02:32       0.072     0.000
  T5                      5.22     0.369      0  02:37       1.045     0.000
  T4                      1.59     0.093      0  03:14       0.132     0.000
  T6                      2.56     0.705      0  02:37       2.041     0.000
  T2                      1.22     0.209      0  03:06       0.185     0.000
  T1                      1.28     0.845      0  02:35       1.714     0.000
  
  
  **********************
  Storage Volume Summary
  **********************
  
  --------------------------------------------------------------------------------------------------
                         Average     Avg  Evap Exfil       Maximum     Max    Time of Max    Maximum
                          Volume    Pcnt  Pcnt  Pcnt        Volume    Pcnt     Occurrence    Outflow
  Storage Unit           1000 m3    Full  Loss  Loss       1000 m3    Full    days hr:min        CMS
  --------------------------------------------------------------------------------------------------
  T5                       0.370      74     0     0         0.500     100       0  02:37      0.000
  T4                       0.340      68     0     0         0.500     100       0  03:14      0.028
  T6                       0.437      73     0     0         0.600     100       0  02:32      0.075
  T3                       1.658      64     0     0         2.437      94       0  04:36      0.306
  T2                       0.690      69     0     0         1.000     100       0  03:06      0.033
  T1                       0.454      65     0     0         0.700     100       0  02:33      0.271
  
  
  ***********************
  Outfall Loading Summary
  ***********************
  
  -----------------------------------------------------------
                         Flow       Avg       Max       Total
                         Freq      Flow      Flow      Volume
  Outfall Node           Pcnt       CMS       CMS    10^6 ltr
  -----------------------------------------------------------
  Out_to_WWTP           99.01     0.197     0.271       5.491
  -----------------------------------------------------------
  System                99.01     0.197     0.271       5.491
  
  
  ********************
  Link Flow Summary
  ********************
  
  -----------------------------------------------------------------------------
                                 Maximum  Time of Max   Maximum    Max/    Max/
                                  |Flow|   Occurrence   |Veloc|    Full    Full
  Link                 Type          CMS  days hr:min     m/sec    Flow   Depth
  -----------------------------------------------------------------------------
  C1                   CONDUIT     0.000     0  00:00      0.00    0.00    0.06
  C6                   CONDUIT     0.071     0  02:35      1.29    1.13    0.76
  C2                   CONDUIT     0.028     0  04:01      0.97    0.03    0.16
  C9                   CONDUIT     0.127     0  02:50      1.28    0.43    0.52
  C16                  CONDUIT     0.489     0  02:28      1.78    0.05    0.15
  C3                   CONDUIT     0.120     0  04:37      1.86    0.05    0.14
  C19                  CONDUIT     0.033     0  04:02      0.65    0.01    0.21
  C11                  CONDUIT     0.148     0  04:47      1.54    0.01    0.11
  C20                  CONDUIT     0.807     0  02:31      2.97    0.03    0.14
  C22                  CONDUIT     0.202     0  02:51      1.60    0.09    0.32
  C12                  CONDUIT     0.075     0  04:06      0.47    0.01    0.20
  C17                  CONDUIT     0.951     0  02:30      3.06    0.05    0.19
  C10                  CONDUIT     0.780     0  02:37      1.65    0.08    0.60
  C13                  CONDUIT     1.013     0  02:33      1.31    0.06    0.67
  C18                  CONDUIT     0.552     0  02:31      1.72    0.02    0.55
  C23                  CONDUIT     1.116     0  02:35      1.31    0.12    0.62
  C4                   CONDUIT     0.387     0  02:31      1.97    0.09    0.60
  C7                   CONDUIT     0.215     0  02:35      1.41    0.05    0.58
  C14                  CONDUIT     0.271     0  02:35      2.08    0.02    0.09
  C5                   CONDUIT     0.073     0  02:18      1.42    1.24    1.00
  C8                   CONDUIT     0.127     0  02:50      1.76    1.60    0.86
  C15                  CONDUIT     0.486     0  02:51      3.43    1.55    0.83
  C21                  CONDUIT     0.202     0  02:51      1.83    1.16    0.69
  V4                   ORIFICE     0.028     0  03:14                      0.35
  V5                   ORIFICE     0.000     0  00:00                      0.00
  V1                   ORIFICE     0.271     0  02:33                      1.00
  V6                   ORIFICE     0.075     0  02:32                      0.43
  V3                   ORIFICE     0.120     0  04:36                      0.65
  V2                   ORIFICE     0.033     0  03:06                      0.24
  
  
  ***************************
  Flow Classification Summary
  ***************************
  
  -------------------------------------------------------------------------------------
                      Adjusted    ---------- Fraction of Time in Flow Class ---------- 
                       /Actual         Up    Down  Sub   Sup   Up    Down  Norm  Inlet 
  Conduit               Length    Dry  Dry   Dry   Crit  Crit  Crit  Crit  Ltd   Ctrl  
  -------------------------------------------------------------------------------------
  C1                      1.00   0.26  0.74  0.00  0.00  0.00  0.00  0.00  0.00  0.00
  C6                      1.00   0.00  0.00  0.00  0.14  0.86  0.00  0.00  0.00  0.00
  C2                      1.00   0.26  0.00  0.00  0.00  0.74  0.00  0.00  0.73  0.00
  C9                      1.00   0.00  0.00  0.00  1.00  0.00  0.00  0.00  1.00  0.00
  C16                     1.00   0.00  0.00  0.00  0.57  0.43  0.00  0.00  0.47  0.00
  C3                      1.00   0.26  0.00  0.00  0.00  0.74  0.00  0.00  0.00  0.00
  C19                     1.00   0.00  0.26  0.00  0.74  0.00  0.00  0.00  0.74  0.00
  C11                     1.00   0.00  0.26  0.00  0.17  0.58  0.00  0.00  0.74  0.00
  C20                     1.00   0.00  0.00  0.00  0.55  0.45  0.00  0.00  0.98  0.00
  C22                     1.00   0.00  0.00  0.00  0.71  0.29  0.00  0.00  1.00  0.00
  C12                     1.00   0.00  0.26  0.00  0.74  0.00  0.00  0.00  0.74  0.00
  C17                     1.00   0.00  0.00  0.00  0.60  0.40  0.00  0.00  0.91  0.00
  C10                     1.00   0.00  0.00  0.00  0.97  0.03  0.00  0.00  0.98  0.00
  C13                     1.00   0.00  0.00  0.00  0.86  0.14  0.00  0.00  0.30  0.00
  C18                     1.00   0.00  0.00  0.00  0.95  0.05  0.00  0.00  0.97  0.00
  C23                     1.00   0.00  0.00  0.00  0.81  0.19  0.00  0.00  0.94  0.00
  C4                      1.00   0.00  0.00  0.00  0.97  0.03  0.00  0.00  0.98  0.00
  C7                      1.00   0.00  0.00  0.00  0.95  0.05  0.00  0.00  0.97  0.00
  C14                     1.00   0.00  0.00  0.00  0.00  0.99  0.00  0.00  0.22  0.00
  C5                      1.00   0.00  0.00  0.00  0.90  0.10  0.00  0.00  0.86  0.00
  C8                      1.00   0.00  0.00  0.00  0.16  0.84  0.00  0.00  0.00  0.00
  C15                     1.00   0.00  0.00  0.00  0.00  1.00  0.00  0.00  0.00  0.00
  C21                     1.00   0.00  0.00  0.00  0.01  0.99  0.00  0.00  0.00  0.00
  
  
  *************************
  Conduit Surcharge Summary
  *************************
  
  ----------------------------------------------------------------------------
                                                           Hours        Hours 
                         --------- Hours Full --------   Above Full   Capacity
  Conduit                Both Ends  Upstream  Dnstream   Normal Flow   Limited
  ----------------------------------------------------------------------------
  C6                          0.01      0.91      0.01      0.81         0.01
  C10                         0.01      0.01      5.96      0.01         0.01
  C13                         0.01      0.01      5.38      0.01         0.01
  C18                         0.01      0.01      5.51      0.01         0.01
  C23                         0.01      0.01      5.80      0.01         0.01
  C4                          0.01      0.01      6.14      0.01         0.01
  C7                          0.01      0.01      5.87      0.01         0.01
  C5                          0.94      0.94      1.04      1.00         0.91
  C8                          0.01      0.96      0.01      0.98         0.01
  C15                         0.01      0.92      0.01      0.99         0.01
  C21                         0.01      0.71      0.01      0.70         0.01
  

  Analysis begun on:  Fri Sep  3 20:15:10 2021
  Analysis ended on:  Fri Sep  3 20:15:10 2021
  Total elapsed time: < 1 sec