
  EPA STORM WATER MANAGEMENT MODEL - VERSION 5.1 (Build 5.3.0.dev0)
  --------------------------------------------------------------

  
  *********************************************************
  NOTE: The summary statistics displayed in this report are
  based on results found at every computational time step,  
  not just on results from each reporting time step.
  *********************************************************
  
  ****************
  Analysis Options
  ****************
  Flow Units ............... CMS
  Process Models:
    Rainfall/Runoff ........ YES
    RDII ................... NO
    Snowmelt ............... NO
    Groundwater ............ NO
    Flow Routing ........... YES
    Ponding Allowed ........ YES
    Water Quality .......... NO
  Infiltration Method ...... HORTON
  Flow Routing Method ...... DYNWAVE
  Surcharge Method ......... EXTRAN
  Starting Date ............ 08/28/2015 08:00:00
  Ending Date .............. 08/28/2015 15:50:00
  Antecedent Dry Days ...... 0.0
  Report Time Step ......... 00:01:00
  Wet Time Step ............ 00:01:00
  Dry Time Step ............ 00:01:00
  Routing Time Step ........ 5.00 sec
  Variable Time Step ....... YES
  Maximum Trials ........... 8
  Number of Threads ........ 1
  Head Tolerance ........... 0.001500 m
  
  
  **************************        Volume         Depth
  Runoff Quantity Continuity     hectare-m            mm
  **************************     ---------       -------
  Total Precipitation ......         1.432         7.948
  Evaporation Loss .........         0.000         0.000
  Infiltration Loss ........         0.000         0.000
  Surface Runoff ...........         1.408         7.816
  Final Storage ............         0.024         0.133
  Continuity Error (%) .....        -0.009
  
  
  **************************        Volume        Volume
  Flow Routing Continuity        hectare-m      10^6 ltr
  **************************     ---------     ---------
  Dry Weather Inflow .......         0.396         3.955
  Wet Weather Inflow .......         1.408        14.084
  Groundwater Inflow .......         0.000         0.000
  RDII Inflow ..............         0.000         0.000
  External Inflow ..........         0.000         0.000
  External Outflow .........         0.531         5.314
  Flooding Loss ............         0.337         3.367
  Evaporation Loss .........         0.000         0.000
  Exfiltration Loss ........         0.000         0.000
  Initial Stored Volume ....         0.000         0.000
  Final Stored Volume ......         0.701         7.012
  Continuity Error (%) .....        13.007
  
  
  *************************
  Highest Continuity Errors
  *************************
  Node T2 (35.86%)
  Node T5 (27.75%)
  Node T4 (25.01%)
  Node T3 (21.32%)
  Node T6 (17.33%)
  
  
  ***************************
  Time-Step Critical Elements
  ***************************
  None
  
  
  ********************************
  Highest Flow Instability Indexes
  ********************************
  Link C13 (1)
  
  
  *************************
  Routing Time Step Summary
  *************************
  Minimum Time Step           :     4.50 sec
  Average Time Step           :     5.00 sec
  Maximum Time Step           :     5.00 sec
  Percent in Steady State     :     0.00
  Average Iterations per Step :     2.17
  Percent Not Converging      :     0.60
  
  
  ***************************
  Subcatchment Runoff Summary
  ***************************
  
  ------------------------------------------------------------------------------------------------------------------------------
                            Total      Total      Total      Total     Imperv       Perv      Total       Total     Peak  Runoff
                           Precip      Runon       Evap      Infil     Runoff     Runoff     Runoff      Runoff   Runoff   Coeff
  Subcatchment                 mm         mm         mm         mm         mm         mm         mm    10^6 ltr      CMS
  ------------------------------------------------------------------------------------------------------------------------------
  SC01                       7.95       0.00       0.00       0.00       7.86       0.00       7.86        2.59     0.80   0.989
  SC02                       7.95       0.00       0.00       0.00       7.86       0.00       7.86        1.79     0.54   0.988
  SC03                       7.95       0.00       0.00       0.00       7.88       0.00       7.88        1.42     0.46   0.991
  SC04                       7.95       0.00       0.00       0.00       7.75       0.00       7.75        0.53     0.14   0.975
  SC05                       7.95       0.00       0.00       0.00       7.85       0.00       7.85        1.23     0.37   0.988
  SC06                       7.95       0.00       0.00       0.00       7.70       0.00       7.70        2.51     0.61   0.968
  SC07                       7.95       0.00       0.00       0.00       7.75       0.00       7.75        0.37     0.09   0.975
  SC08                       7.95       0.00       0.00       0.00       7.83       0.00       7.83        2.19     0.63   0.985
  SC09                       7.95       0.00       0.00       0.00       7.80       0.00       7.80        0.54     0.15   0.982
  SC010                      7.95       0.00       0.00       0.00       7.83       0.00       7.83        0.92     0.26   0.986
  
  
  ******************
  Node Depth Summary
  ******************
  
  ---------------------------------------------------------------------------------
                                 Average  Maximum  Maximum  Time of Max    Reported
                                   Depth    Depth      HGL   Occurrence   Max Depth
  Node                 Type       Meters   Meters   Meters  days hr:min      Meters
  ---------------------------------------------------------------------------------
  J1                   JUNCTION     0.08     0.21    34.21     0  03:01        0.21
  J3                   JUNCTION     0.08     0.12    18.12     0  05:00        0.12
  CSO7                 JUNCTION     0.17     1.20    35.20     0  02:45        1.20
  J5                   JUNCTION     0.07     0.15    32.15     0  03:01        0.15
  CSO9                 JUNCTION     0.19     2.00    42.00     0  02:55        2.00
  J8                   JUNCTION     0.11     0.28    36.28     0  03:01        0.28
  CSO8                 JUNCTION     0.22     2.00    34.00     0  02:53        2.00
  J10                  JUNCTION     0.10     0.29    29.29     0  03:01        0.29
  J13                  JUNCTION     0.07     0.20    29.20     0  03:01        0.20
  J15                  JUNCTION     0.16     0.35    15.35     0  03:02        0.35
  J16                  JUNCTION     0.07     0.22    30.22     0  03:01        0.22
  CSO10                JUNCTION     0.15     1.00    31.00     0  02:52        1.00
  J12                  JUNCTION     0.23     0.33    26.33     0  05:03        0.33
  J4                   JUNCTION     0.16     1.20    34.20     0  02:45        0.77
  J6                   JUNCTION     0.05     0.07    25.07     0  04:55        0.07
  J2                   JUNCTION     0.00     0.00    25.00     0  00:00        0.00
  J19                  JUNCTION     0.13     0.17     8.17     0  02:56        0.17
  J9                   JUNCTION     0.08     0.11    29.11     0  04:13        0.11
  J14                  JUNCTION     0.10     0.15    20.15     0  05:08        0.15
  J17                  JUNCTION     0.05     0.07    20.07     0  04:31        0.07
  J7                   JUNCTION     0.09     0.23    39.23     0  03:04        0.23
  J11                  JUNCTION     0.10     0.30    31.30     0  02:57        0.30
  J18                  JUNCTION     0.06     0.16    29.16     0  03:04        0.16
  Out_to_WWTP          OUTFALL      0.13     0.17     6.17     0  04:05        0.17
  T5                   STORAGE      3.59     5.00    32.00     0  02:57        5.00
  T4                   STORAGE      3.24     5.00    32.00     0  04:29        5.00
  T6                   STORAGE      3.56     5.00    36.00     0  02:49        5.00
  T3                   STORAGE      2.86     4.33    26.33     0  05:07        4.33
  T2                   STORAGE      3.06     4.59    25.59     0  04:29        4.59
  T1                   STORAGE      3.08     5.00    15.00     0  02:55        5.00
  
  
  *******************
  Node Inflow Summary
  *******************
  
  -------------------------------------------------------------------------------------------------
                                  Maximum  Maximum                  Lateral       Total        Flow
                                  Lateral    Total  Time of Max      Inflow      Inflow     Balance
                                   Inflow   Inflow   Occurrence      Volume      Volume       Error
  Node                 Type           CMS      CMS  days hr:min    10^6 ltr    10^6 ltr     Percent
  -------------------------------------------------------------------------------------------------
  J1                   JUNCTION     0.392    0.392     0  03:01        1.79        1.79       0.044
  J3                   JUNCTION     0.000    0.143     0  04:59           0        2.69       1.213
  CSO7                 JUNCTION     0.106    0.106     0  03:01       0.659       0.659       0.070
  J5                   JUNCTION     0.142    0.214     0  03:01       0.662         1.3       0.137
  CSO9                 JUNCTION     0.155    0.155     0  03:01       0.735       0.735       0.067
  J8                   JUNCTION     0.648    0.774     0  03:01        3.45        4.17       0.148
  CSO8                 JUNCTION     0.636    0.636     0  03:01        2.48        2.48       0.024
  J10                  JUNCTION     0.478    0.967     0  03:01         1.8        4.24       0.091
  J13                  JUNCTION     0.559    0.559     0  03:01        2.25        2.25      -0.146
  J15                  JUNCTION     0.000    1.146     0  03:01           0        7.44       0.969
  J16                  JUNCTION     0.818    0.818     0  03:01        3.15        3.15      -0.024
  CSO10                JUNCTION     0.271    0.271     0  03:01        1.06        1.06       0.034
  J12                  JUNCTION     0.000    1.020     0  03:01           0        5.69       2.113
  J4                   JUNCTION     0.000    0.071     0  03:01           0       0.637       0.529
  J6                   JUNCTION     0.000    0.028     0  04:29           0       0.524       0.710
  J2                   JUNCTION     0.000    0.000     0  00:00           0           0       0.000 ltr
  J19                  JUNCTION     0.000    0.271     0  02:55           0        5.33       0.205
  J9                   JUNCTION     0.000    0.075     0  02:49           0        1.47       1.434
  J14                  JUNCTION     0.000    0.115     0  05:07           0        2.18       0.300
  J17                  JUNCTION     0.000    0.032     0  04:29           0       0.603       1.235
  J7                   JUNCTION     0.000    0.127     0  03:03           0       0.727       0.432
  J11                  JUNCTION     0.000    0.486     0  02:57           0        2.44       0.257
  J18                  JUNCTION     0.000    0.202     0  03:04           0        1.04       0.059
  Out_to_WWTP          OUTFALL      0.000    0.271     0  02:57           0        5.31       0.000
  T5                   STORAGE      0.000    0.385     0  03:01           0        1.79      38.411
  T4                   STORAGE      0.000    0.210     0  03:01           0        1.29      33.358
  T6                   STORAGE      0.000    0.757     0  03:01           0        4.16      20.968
  T3                   STORAGE      0.000    0.993     0  03:02           0        5.57      27.097
  T2                   STORAGE      0.000    0.548     0  03:01           0        2.26      55.911
  T1                   STORAGE      0.000    1.084     0  03:02           0        7.37       8.287
  
  
  **********************
  Node Surcharge Summary
  **********************
  
  Surcharging occurs when water rises above the top of the highest conduit.
  ---------------------------------------------------------------------
                                               Max. Height   Min. Depth
                                   Hours       Above Crown    Below Rim
  Node                 Type      Surcharged         Meters       Meters
  ---------------------------------------------------------------------
  CSO7                 JUNCTION        0.59          0.945        0.000
  CSO9                 JUNCTION        0.62          1.682        0.000
  CSO8                 JUNCTION        0.55          1.547        0.000
  CSO10                JUNCTION        0.30          0.560        0.000
  J4                   JUNCTION        0.55          0.900        0.800
  
  
  *********************
  Node Flooding Summary
  *********************
  
  Flooding refers to all water that overflows a node, whether it ponds or not.
  --------------------------------------------------------------------------
                                                             Total   Maximum
                                 Maximum   Time of Max       Flood    Ponded
                        Hours       Rate    Occurrence      Volume     Depth
  Node                 Flooded       CMS   days hr:min    10^6 ltr    Meters
  --------------------------------------------------------------------------
  CSO7                    0.40     0.035      0  03:01       0.021     0.000
  CSO9                    0.15     0.028      0  03:01       0.007     0.000
  CSO8                    0.18     0.150      0  03:01       0.045     0.000
  CSO10                   0.20     0.068      0  03:01       0.022     0.000
  T5                      4.87     0.385      0  03:01       0.791     0.000
  T4                      0.43     0.005      0  04:29       0.004     0.000
  T6                      2.33     0.681      0  03:01       1.464     0.000
  T1                      0.96     0.814      0  03:02       1.014     0.000
  
  
  **********************
  Storage Volume Summary
  **********************
  
  --------------------------------------------------------------------------------------------------
                         Average     Avg  Evap Exfil       Maximum     Max    Time of Max    Maximum
                          Volume    Pcnt  Pcnt  Pcnt        Volume    Pcnt     Occurrence    Outflow
  Storage Unit           1000 m3    Full  Loss  Loss       1000 m3    Full    days hr:min        CMS
  --------------------------------------------------------------------------------------------------
  T5                       0.359      72     0     0         0.500     100       0  02:57      0.000
  T4                       0.324      65     0     0         0.500     100       0  04:29      0.028
  T6                       0.428      71     0     0         0.600     100       0  02:49      0.075
  T3                       1.487      57     0     0         2.253      87       0  05:07      0.134
  T2                       0.612      61     0     0         0.919      92       0  04:29      0.032
  T1                       0.431      62     0     0         0.700     100       0  02:55      0.271
  
  
  ***********************
  Outfall Loading Summary
  ***********************
  
  -----------------------------------------------------------
                         Flow       Avg       Max       Total
                         Freq      Flow      Flow      Volume
  Outfall Node           Pcnt       CMS       CMS    10^6 ltr
  -----------------------------------------------------------
  Out_to_WWTP           99.01     0.190     0.271       5.314
  -----------------------------------------------------------
  System                99.01     0.190     0.271       5.314
  
  
  ********************
  Link Flow Summary
  ********************
  
  -----------------------------------------------------------------------------
                                 Maximum  Time of Max   Maximum    Max/    Max/
                                  |Flow|   Occurrence   |Veloc|    Full    Full
  Link                 Type          CMS  days hr:min     m/sec    Flow   Depth
  -----------------------------------------------------------------------------
  C1                   CONDUIT     0.000     0  00:00      0.00    0.00    0.06
  C6                   CONDUIT     0.071     0  03:01      1.29    1.13    0.76
  C2                   CONDUIT     0.028     0  04:55      0.98    0.03    0.16
  C9                   CONDUIT     0.127     0  03:04      1.28    0.43    0.51
  C16                  CONDUIT     0.489     0  03:01      1.76    0.05    0.15
  C3                   CONDUIT     0.115     0  05:08      1.83    0.04    0.13
  C19                  CONDUIT     0.032     0  04:32      0.64    0.01    0.21
  C11                  CONDUIT     0.143     0  05:00      1.53    0.01    0.11
  C20                  CONDUIT     0.802     0  03:01      2.96    0.03    0.14
  C22                  CONDUIT     0.202     0  03:04      1.58    0.09    0.32
  C12                  CONDUIT     0.075     0  04:12      0.74    0.01    0.11
  C17                  CONDUIT     0.945     0  03:01      3.05    0.05    0.16
  C10                  CONDUIT     0.757     0  03:01      1.65    0.08    0.59
  C13                  CONDUIT     0.993     0  03:02      1.31    0.06    0.58
  C18                  CONDUIT     0.548     0  03:01      1.72    0.02    0.55
  C23                  CONDUIT     1.084     0  03:02      1.26    0.12    0.62
  C4                   CONDUIT     0.385     0  03:01      1.97    0.09    0.60
  C7                   CONDUIT     0.210     0  03:01      1.41    0.05    0.58
  C14                  CONDUIT     0.271     0  02:57      2.08    0.02    0.09
  C5                   CONDUIT     0.071     0  03:01      1.39    1.22    1.00
  C8                   CONDUIT     0.127     0  03:03      1.75    1.60    0.86
  C15                  CONDUIT     0.486     0  02:57      3.42    1.55    0.83
  C21                  CONDUIT     0.202     0  03:04      1.83    1.16    0.69
  V4                   ORIFICE     0.028     0  04:29                      0.35
  V5                   ORIFICE     0.000     0  00:00                      0.00
  V1                   ORIFICE     0.271     0  02:55                      1.00
  V6                   ORIFICE     0.075     0  02:49                      0.43
  V3                   ORIFICE     0.115     0  05:07                      0.65
  V2                   ORIFICE     0.032     0  04:29                      0.24
  
  
  ***************************
  Flow Classification Summary
  ***************************
  
  -------------------------------------------------------------------------------------
                      Adjusted    ---------- Fraction of Time in Flow Class ---------- 
                       /Actual         Up    Down  Sub   Sup   Up    Down  Norm  Inlet 
  Conduit               Length    Dry  Dry   Dry   Crit  Crit  Crit  Crit  Ltd   Ctrl  
  -------------------------------------------------------------------------------------
  C1                      1.00   0.28  0.72  0.00  0.00  0.00  0.00  0.00  0.00  0.00
  C6                      1.00   0.00  0.00  0.00  0.10  0.90  0.00  0.00  0.00  0.00
  C2                      1.00   0.28  0.00  0.00  0.00  0.72  0.00  0.00  0.71  0.00
  C9                      1.00   0.00  0.00  0.00  1.00  0.00  0.00  0.00  1.00  0.00
  C16                     1.00   0.00  0.00  0.00  0.56  0.44  0.00  0.00  0.38  0.00
  C3                      1.00   0.28  0.00  0.00  0.00  0.72  0.00  0.00  0.00  0.00
  C19                     1.00   0.00  0.28  0.00  0.72  0.00  0.00  0.00  0.72  0.00
  C11                     1.00   0.00  0.28  0.00  0.16  0.56  0.00  0.00  0.72  0.00
  C20                     1.00   0.00  0.00  0.00  0.53  0.47  0.00  0.00  0.98  0.00
  C22                     1.00   0.00  0.00  0.00  0.70  0.30  0.00  0.00  1.00  0.00
  C12                     1.00   0.00  0.28  0.00  0.72  0.00  0.00  0.00  0.72  0.00
  C17                     1.00   0.00  0.00  0.00  0.54  0.46  0.00  0.00  0.91  0.00
  C10                     1.00   0.00  0.00  0.00  0.97  0.03  0.00  0.00  0.98  0.00
  C13                     1.00   0.00  0.00  0.00  0.88  0.12  0.00  0.00  0.36  0.00
  C18                     1.00   0.00  0.00  0.00  0.95  0.05  0.00  0.00  0.97  0.00
  C23                     1.00   0.00  0.00  0.00  0.81  0.19  0.00  0.00  0.94  0.00
  C4                      1.00   0.00  0.00  0.00  0.97  0.03  0.00  0.00  0.98  0.00
  C7                      1.00   0.00  0.00  0.00  0.95  0.05  0.00  0.00  0.97  0.00
  C14                     1.00   0.00  0.00  0.00  0.00  0.99  0.00  0.00  0.21  0.00
  C5                      1.00   0.00  0.00  0.00  0.89  0.11  0.00  0.00  0.90  0.00
  C8                      1.00   0.00  0.00  0.00  0.12  0.88  0.00  0.00  0.00  0.00
  C15                     1.00   0.00  0.00  0.00  0.00  1.00  0.00  0.00  0.00  0.00
  C21                     1.00   0.00  0.00  0.00  0.00  1.00  0.00  0.00  0.00  0.00
  
  
  *************************
  Conduit Surcharge Summary
  *************************
  
  ----------------------------------------------------------------------------
                                                           Hours        Hours 
                         --------- Hours Full --------   Above Full   Capacity
  Conduit                Both Ends  Upstream  Dnstream   Normal Flow   Limited
  ----------------------------------------------------------------------------
  C6                          0.01      0.55      0.01      0.45         0.01
  C10                         0.01      0.01      5.88      0.01         0.01
  C13                         0.01      0.01      5.12      0.01         0.01
  C18                         0.01      0.01      5.27      0.01         0.01
  C23                         0.01      0.01      5.64      0.01         0.01
  C4                          0.01      0.01      6.08      0.01         0.01
  C7                          0.01      0.01      5.78      0.01         0.01
  C5                          0.59      0.59      0.71      0.67         0.56
  C8                          0.01      0.62      0.01      0.65         0.01
  C15                         0.01      0.55      0.01      0.64         0.01
  C21                         0.01      0.30      0.01      0.31         0.01
  

  Analysis begun on:  Fri Sep  3 20:04:15 2021
  Analysis ended on:  Fri Sep  3 20:04:15 2021
  Total elapsed time: < 1 sec