
  EPA STORM WATER MANAGEMENT MODEL - VERSION 5.1 (Build 5.3.0.dev0)
  --------------------------------------------------------------

  
  *********************************************************
  NOTE: The summary statistics displayed in this report are
  based on results found at every computational time step,  
  not just on results from each reporting time step.
  *********************************************************
  
  ****************
  Analysis Options
  ****************
  Flow Units ............... CMS
  Process Models:
    Rainfall/Runoff ........ YES
    RDII ................... NO
    Snowmelt ............... NO
    Groundwater ............ NO
    Flow Routing ........... YES
    Ponding Allowed ........ YES
    Water Quality .......... NO
  Infiltration Method ...... HORTON
  Flow Routing Method ...... DYNWAVE
  Surcharge Method ......... EXTRAN
  Starting Date ............ 08/28/2015 08:00:00
  Ending Date .............. 08/28/2015 15:50:00
  Antecedent Dry Days ...... 0.0
  Report Time Step ......... 00:01:00
  Wet Time Step ............ 00:01:00
  Dry Time Step ............ 00:01:00
  Routing Time Step ........ 5.00 sec
  Variable Time Step ....... YES
  Maximum Trials ........... 8
  Number of Threads ........ 1
  Head Tolerance ........... 0.001500 m
  
  
  **************************        Volume         Depth
  Runoff Quantity Continuity     hectare-m            mm
  **************************     ---------       -------
  Total Precipitation ......         1.246         6.914
  Evaporation Loss .........         0.000         0.000
  Infiltration Loss ........         0.000         0.000
  Surface Runoff ...........         1.222         6.783
  Final Storage ............         0.024         0.132
  Continuity Error (%) .....        -0.009
  
  
  **************************        Volume        Volume
  Flow Routing Continuity        hectare-m      10^6 ltr
  **************************     ---------     ---------
  Dry Weather Inflow .......         0.396         3.955
  Wet Weather Inflow .......         1.222        12.222
  Groundwater Inflow .......         0.000         0.000
  RDII Inflow ..............         0.000         0.000
  External Inflow ..........         0.000         0.000
  External Outflow .........         0.517         5.171
  Flooding Loss ............         0.234         2.338
  Evaporation Loss .........         0.000         0.000
  Exfiltration Loss ........         0.000         0.000
  Initial Stored Volume ....         0.000         0.000
  Final Stored Volume ......         0.657         6.574
  Continuity Error (%) .....        12.952
  
  
  *************************
  Highest Continuity Errors
  *************************
  Node T2 (35.46%)
  Node T5 (30.49%)
  Node T4 (24.68%)
  Node T3 (21.18%)
  Node T6 (19.10%)
  
  
  ***************************
  Time-Step Critical Elements
  ***************************
  None
  
  
  ********************************
  Highest Flow Instability Indexes
  ********************************
  All links are stable.
  
  
  *************************
  Routing Time Step Summary
  *************************
  Minimum Time Step           :     4.50 sec
  Average Time Step           :     5.00 sec
  Maximum Time Step           :     5.00 sec
  Percent in Steady State     :     0.00
  Average Iterations per Step :     2.17
  Percent Not Converging      :     0.59
  
  
  ***************************
  Subcatchment Runoff Summary
  ***************************
  
  ------------------------------------------------------------------------------------------------------------------------------
                            Total      Total      Total      Total     Imperv       Perv      Total       Total     Peak  Runoff
                           Precip      Runon       Evap      Infil     Runoff     Runoff     Runoff      Runoff   Runoff   Coeff
  Subcatchment                 mm         mm         mm         mm         mm         mm         mm    10^6 ltr      CMS
  ------------------------------------------------------------------------------------------------------------------------------
  SC01                       6.91       0.00       0.00       0.00       6.83       0.00       6.83        2.25     0.68   0.988
  SC02                       6.91       0.00       0.00       0.00       6.82       0.00       6.82        1.55     0.46   0.987
  SC03                       6.91       0.00       0.00       0.00       6.84       0.00       6.84        1.23     0.40   0.990
  SC04                       6.91       0.00       0.00       0.00       6.72       0.00       6.72        0.46     0.12   0.972
  SC05                       6.91       0.00       0.00       0.00       6.82       0.00       6.82        1.06     0.32   0.987
  SC06                       6.91       0.00       0.00       0.00       6.67       0.00       6.67        2.17     0.52   0.964
  SC07                       6.91       0.00       0.00       0.00       6.72       0.00       6.72        0.32     0.08   0.972
  SC08                       6.91       0.00       0.00       0.00       6.80       0.00       6.80        1.90     0.53   0.983
  SC09                       6.91       0.00       0.00       0.00       6.77       0.00       6.77        0.47     0.13   0.979
  SC010                      6.91       0.00       0.00       0.00       6.80       0.00       6.80        0.80     0.23   0.984
  
  
  ******************
  Node Depth Summary
  ******************
  
  ---------------------------------------------------------------------------------
                                 Average  Maximum  Maximum  Time of Max    Reported
                                   Depth    Depth      HGL   Occurrence   Max Depth
  Node                 Type       Meters   Meters   Meters  days hr:min      Meters
  ---------------------------------------------------------------------------------
  J1                   JUNCTION     0.07     0.19    34.19     0  03:01        0.19
  J3                   JUNCTION     0.08     0.12    18.12     0  05:19        0.12
  CSO7                 JUNCTION     0.14     1.20    35.20     0  02:52        1.20
  J5                   JUNCTION     0.07     0.15    32.15     0  03:01        0.15
  CSO9                 JUNCTION     0.16     2.00    42.00     0  02:59        2.00
  J8                   JUNCTION     0.11     0.26    36.26     0  03:01        0.26
  CSO8                 JUNCTION     0.18     2.00    34.00     0  02:58        2.00
  J10                  JUNCTION     0.10     0.28    29.28     0  03:01        0.28
  J13                  JUNCTION     0.06     0.18    29.18     0  03:01        0.18
  J15                  JUNCTION     0.15     0.33    15.33     0  03:02        0.33
  J16                  JUNCTION     0.07     0.20    30.20     0  03:01        0.20
  CSO10                JUNCTION     0.13     1.00    31.00     0  02:57        1.00
  J12                  JUNCTION     0.13     0.31    26.31     0  03:03        0.31
  J4                   JUNCTION     0.14     1.21    34.21     0  02:52        0.87
  J6                   JUNCTION     0.05     0.07    25.07     0  05:02        0.07
  J2                   JUNCTION     0.00     0.00    25.00     0  00:00        0.00
  J19                  JUNCTION     0.13     0.17     8.17     0  03:03        0.17
  J9                   JUNCTION     0.08     0.11    29.11     0  04:15        0.11
  J14                  JUNCTION     0.10     0.15    20.15     0  05:35        0.15
  J17                  JUNCTION     0.05     0.07    20.07     0  04:40        0.07
  J7                   JUNCTION     0.09     0.23    39.23     0  03:02        0.23
  J11                  JUNCTION     0.10     0.30    31.30     0  03:02        0.30
  J18                  JUNCTION     0.06     0.16    29.16     0  03:02        0.16
  Out_to_WWTP          OUTFALL      0.13     0.17     6.17     0  03:58        0.17
  T5                   STORAGE      3.54     5.00    32.00     0  03:04        5.00
  T4                   STORAGE      2.90     4.48    31.48     0  05:01        4.48
  T6                   STORAGE      3.51     5.00    36.00     0  02:56        5.00
  T3                   STORAGE      2.61     4.01    26.01     0  05:31        4.01
  T2                   STORAGE      2.68     4.02    25.02     0  04:38        4.02
  T1                   STORAGE      2.94     5.00    15.00     0  03:01        5.00
  
  
  *******************
  Node Inflow Summary
  *******************
  
  -------------------------------------------------------------------------------------------------
                                  Maximum  Maximum                  Lateral       Total        Flow
                                  Lateral    Total  Time of Max      Inflow      Inflow     Balance
                                   Inflow   Inflow   Occurrence      Volume      Volume       Error
  Node                 Type           CMS      CMS  days hr:min    10^6 ltr    10^6 ltr     Percent
  -------------------------------------------------------------------------------------------------
  J1                   JUNCTION     0.339    0.339     0  03:01        1.63        1.63       0.051
  J3                   JUNCTION     0.000    0.137     0  05:16           0        2.56       1.229
  CSO7                 JUNCTION     0.092    0.092     0  03:01        0.61        0.61       0.076
  J5                   JUNCTION     0.122    0.193     0  03:01       0.591        1.19       0.152
  CSO9                 JUNCTION     0.134    0.134     0  03:01       0.663       0.663       0.069
  J8                   JUNCTION     0.555    0.675     0  03:01        3.11        3.77       0.165
  CSO8                 JUNCTION     0.545    0.545     0  03:01        2.19        2.19       0.027
  J10                  JUNCTION     0.413    0.897     0  03:01        1.62         3.8       0.128
  J13                  JUNCTION     0.481    0.481     0  03:01        2.02        2.02      -0.151
  J15                  JUNCTION     0.000    1.023     0  03:01           0        6.83       1.029
  J16                  JUNCTION     0.704    0.704     0  03:01        2.81        2.81      -0.020
  CSO10                JUNCTION     0.232    0.232     0  03:01       0.938       0.938       0.041
  J12                  JUNCTION     0.000    0.946     0  03:01           0        5.23       0.429
  J4                   JUNCTION     0.000    0.071     0  02:52           0       0.601       0.561
  J6                   JUNCTION     0.000    0.027     0  05:01           0       0.496       0.724
  J2                   JUNCTION     0.000    0.000     0  00:00           0           0       0.000 ltr
  J19                  JUNCTION     0.000    0.271     0  03:02           0        5.18       0.206
  J9                   JUNCTION     0.000    0.075     0  02:56           0        1.46       1.433
  J14                  JUNCTION     0.000    0.111     0  05:31           0        2.08       0.306
  J17                  JUNCTION     0.000    0.030     0  04:38           0       0.564       1.251
  J7                   JUNCTION     0.000    0.126     0  03:01           0       0.662       0.477
  J11                  JUNCTION     0.000    0.486     0  03:02           0        2.19       0.282
  J18                  JUNCTION     0.000    0.202     0  03:02           0       0.933       0.071
  Out_to_WWTP          OUTFALL      0.000    0.271     0  03:03           0        5.17       0.000
  T5                   STORAGE      0.000    0.333     0  03:01           0        1.63      43.860
  T4                   STORAGE      0.000    0.190     0  03:01           0        1.19      32.762
  T6                   STORAGE      0.000    0.659     0  03:01           0        3.76      23.608
  T3                   STORAGE      0.000    0.913     0  03:03           0        5.21      26.879
  T2                   STORAGE      0.000    0.472     0  03:01           0        2.02      54.946
  T1                   STORAGE      0.000    0.964     0  03:02           0        6.76       8.530
  
  
  **********************
  Node Surcharge Summary
  **********************
  
  Surcharging occurs when water rises above the top of the highest conduit.
  ---------------------------------------------------------------------
                                               Max. Height   Min. Depth
                                   Hours       Above Crown    Below Rim
  Node                 Type      Surcharged         Meters       Meters
  ---------------------------------------------------------------------
  CSO7                 JUNCTION        0.42          0.945        0.000
  CSO9                 JUNCTION        0.44          1.682        0.000
  CSO8                 JUNCTION        0.39          1.547        0.000
  CSO10                JUNCTION        0.18          0.560        0.000
  J4                   JUNCTION        0.38          0.912        0.788
  
  
  *********************
  Node Flooding Summary
  *********************
  
  Flooding refers to all water that overflows a node, whether it ponds or not.
  --------------------------------------------------------------------------
                                                             Total   Maximum
                                 Maximum   Time of Max       Flood    Ponded
                        Hours       Rate    Occurrence      Volume     Depth
  Node                 Flooded       CMS   days hr:min    10^6 ltr    Meters
  --------------------------------------------------------------------------
  CSO7                    0.23     0.021      0  03:01       0.008     0.000
  CSO9                    0.04     0.008      0  03:01       0.001     0.000
  CSO8                    0.08     0.059      0  03:01       0.008     0.000
  CSO10                   0.09     0.030      0  03:01       0.004     0.000
  T5                      4.77     0.277      0  03:04       0.630     0.000
  T6                      2.17     0.583      0  03:01       1.079     0.000
  T1                      0.76     0.694      0  03:02       0.608     0.000
  
  
  **********************
  Storage Volume Summary
  **********************
  
  --------------------------------------------------------------------------------------------------
                         Average     Avg  Evap Exfil       Maximum     Max    Time of Max    Maximum
                          Volume    Pcnt  Pcnt  Pcnt        Volume    Pcnt     Occurrence    Outflow
  Storage Unit           1000 m3    Full  Loss  Loss       1000 m3    Full    days hr:min        CMS
  --------------------------------------------------------------------------------------------------
  T5                       0.354      71     0     0         0.500     100       0  03:04      0.000
  T4                       0.290      58     0     0         0.448      90       0  05:01      0.027
  T6                       0.421      70     0     0         0.600     100       0  02:56      0.075
  T3                       1.357      52     0     0         2.083      80       0  05:31      0.111
  T2                       0.536      54     0     0         0.803      80       0  04:38      0.030
  T1                       0.412      59     0     0         0.700     100       0  03:01      0.271
  
  
  ***********************
  Outfall Loading Summary
  ***********************
  
  -----------------------------------------------------------
                         Flow       Avg       Max       Total
                         Freq      Flow      Flow      Volume
  Outfall Node           Pcnt       CMS       CMS    10^6 ltr
  -----------------------------------------------------------
  Out_to_WWTP           99.01     0.185     0.271       5.171
  -----------------------------------------------------------
  System                99.01     0.185     0.271       5.171
  
  
  ********************
  Link Flow Summary
  ********************
  
  -----------------------------------------------------------------------------
                                 Maximum  Time of Max   Maximum    Max/    Max/
                                  |Flow|   Occurrence   |Veloc|    Full    Full
  Link                 Type          CMS  days hr:min     m/sec    Flow   Depth
  -----------------------------------------------------------------------------
  C1                   CONDUIT     0.000     0  00:00      0.00    0.00    0.06
  C6                   CONDUIT     0.071     0  03:01      1.29    1.13    0.74
  C2                   CONDUIT     0.027     0  05:02      0.96    0.03    0.16
  C9                   CONDUIT     0.123     0  03:02      1.29    0.42    0.49
  C16                  CONDUIT     0.486     0  03:02      1.75    0.05    0.14
  C3                   CONDUIT     0.111     0  05:32      1.81    0.04    0.13
  C19                  CONDUIT     0.030     0  04:40      0.62    0.01    0.20
  C11                  CONDUIT     0.137     0  05:19      1.51    0.01    0.11
  C20                  CONDUIT     0.691     0  03:01      2.79    0.02    0.13
  C22                  CONDUIT     0.202     0  03:02      1.58    0.09    0.31
  C12                  CONDUIT     0.075     0  04:15      1.09    0.01    0.11
  C17                  CONDUIT     0.871     0  03:01      2.99    0.04    0.15
  C10                  CONDUIT     0.659     0  03:01      1.65    0.07    0.59
  C13                  CONDUIT     0.913     0  03:03      1.31    0.05    0.58
  C18                  CONDUIT     0.472     0  03:01      1.72    0.02    0.55
  C23                  CONDUIT     0.964     0  03:02      1.22    0.11    0.61
  C4                   CONDUIT     0.333     0  03:01      1.97    0.08    0.60
  C7                   CONDUIT     0.190     0  03:01      1.41    0.05    0.57
  C14                  CONDUIT     0.271     0  03:03      2.08    0.02    0.09
  C5                   CONDUIT     0.071     0  02:52      1.39    1.22    1.00
  C8                   CONDUIT     0.126     0  03:01      1.75    1.59    0.86
  C15                  CONDUIT     0.486     0  03:02      3.43    1.55    0.83
  C21                  CONDUIT     0.202     0  03:02      1.83    1.16    0.69
  V4                   ORIFICE     0.027     0  05:01                      0.35
  V5                   ORIFICE     0.000     0  00:00                      0.00
  V1                   ORIFICE     0.271     0  03:02                      1.00
  V6                   ORIFICE     0.075     0  02:56                      0.43
  V3                   ORIFICE     0.111     0  05:31                      0.65
  V2                   ORIFICE     0.030     0  04:38                      0.24
  
  
  ***************************
  Flow Classification Summary
  ***************************
  
  -------------------------------------------------------------------------------------
                      Adjusted    ---------- Fraction of Time in Flow Class ---------- 
                       /Actual         Up    Down  Sub   Sup   Up    Down  Norm  Inlet 
  Conduit               Length    Dry  Dry   Dry   Crit  Crit  Crit  Crit  Ltd   Ctrl  
  -------------------------------------------------------------------------------------
  C1                      1.00   0.28  0.72  0.00  0.00  0.00  0.00  0.00  0.00  0.00
  C6                      1.00   0.00  0.00  0.00  0.08  0.92  0.00  0.00  0.00  0.00
  C2                      1.00   0.28  0.00  0.00  0.00  0.72  0.00  0.00  0.71  0.00
  C9                      1.00   0.00  0.00  0.00  1.00  0.00  0.00  0.00  1.00  0.00
  C16                     1.00   0.00  0.00  0.00  0.57  0.43  0.00  0.00  0.41  0.00
  C3                      1.00   0.28  0.00  0.00  0.00  0.72  0.00  0.00  0.00  0.00
  C19                     1.00   0.00  0.28  0.00  0.72  0.00  0.00  0.00  0.72  0.00
  C11                     1.00   0.00  0.28  0.00  0.16  0.56  0.00  0.00  0.72  0.00
  C20                     1.00   0.00  0.00  0.00  0.53  0.47  0.00  0.00  0.98  0.00
  C22                     1.00   0.00  0.00  0.00  0.70  0.30  0.00  0.00  1.00  0.00
  C12                     1.00   0.00  0.28  0.00  0.23  0.50  0.00  0.00  0.72  0.00
  C17                     1.00   0.00  0.00  0.00  0.37  0.63  0.00  0.00  0.91  0.00
  C10                     1.00   0.00  0.00  0.00  0.97  0.03  0.00  0.00  0.98  0.00
  C13                     1.00   0.00  0.00  0.00  0.88  0.12  0.00  0.00  0.91  0.00
  C18                     1.00   0.00  0.00  0.00  0.95  0.05  0.00  0.00  0.97  0.00
  C23                     1.00   0.00  0.00  0.00  0.81  0.19  0.00  0.00  0.94  0.00
  C4                      1.00   0.00  0.00  0.00  0.97  0.03  0.00  0.00  0.98  0.00
  C7                      1.00   0.00  0.00  0.00  0.95  0.05  0.00  0.00  0.97  0.00
  C14                     1.00   0.00  0.00  0.00  0.00  0.99  0.00  0.00  0.25  0.00
  C5                      1.00   0.00  0.00  0.00  0.89  0.11  0.00  0.00  0.92  0.00
  C8                      1.00   0.00  0.00  0.00  0.10  0.90  0.00  0.00  0.00  0.00
  C15                     1.00   0.00  0.00  0.00  0.00  1.00  0.00  0.00  0.00  0.00
  C21                     1.00   0.00  0.00  0.00  0.00  1.00  0.00  0.00  0.00  0.00
  
  
  *************************
  Conduit Surcharge Summary
  *************************
  
  ----------------------------------------------------------------------------
                                                           Hours        Hours 
                         --------- Hours Full --------   Above Full   Capacity
  Conduit                Both Ends  Upstream  Dnstream   Normal Flow   Limited
  ----------------------------------------------------------------------------
  C6                          0.01      0.38      0.01      0.28         0.01
  C10                         0.01      0.01      5.82      0.01         0.01
  C13                         0.01      0.01      5.00      0.01         0.01
  C18                         0.01      0.01      5.15      0.01         0.01
  C23                         0.01      0.01      5.52      0.01         0.01
  C4                          0.01      0.01      6.02      0.01         0.01
  C7                          0.01      0.01      5.71      0.01         0.01
  C5                          0.42      0.42      0.53      0.48         0.39
  C8                          0.01      0.44      0.01      0.47         0.01
  C15                         0.01      0.39      0.01      0.47         0.01
  C21                         0.01      0.18      0.01      0.18         0.01
  

  Analysis begun on:  Fri Sep  3 20:04:38 2021
  Analysis ended on:  Fri Sep  3 20:04:39 2021
  Total elapsed time: 00:00:01