
  EPA STORM WATER MANAGEMENT MODEL - VERSION 5.1 (Build 5.3.0.dev0)
  --------------------------------------------------------------

  
  *********************************************************
  NOTE: The summary statistics displayed in this report are
  based on results found at every computational time step,  
  not just on results from each reporting time step.
  *********************************************************
  
  ****************
  Analysis Options
  ****************
  Flow Units ............... CMS
  Process Models:
    Rainfall/Runoff ........ YES
    RDII ................... NO
    Snowmelt ............... NO
    Groundwater ............ NO
    Flow Routing ........... YES
    Ponding Allowed ........ YES
    Water Quality .......... NO
  Infiltration Method ...... HORTON
  Flow Routing Method ...... DYNWAVE
  Surcharge Method ......... EXTRAN
  Starting Date ............ 08/28/2015 08:00:00
  Ending Date .............. 08/28/2015 15:50:00
  Antecedent Dry Days ...... 0.0
  Report Time Step ......... 00:01:00
  Wet Time Step ............ 00:01:00
  Dry Time Step ............ 00:01:00
  Routing Time Step ........ 5.00 sec
  Variable Time Step ....... YES
  Maximum Trials ........... 8
  Number of Threads ........ 1
  Head Tolerance ........... 0.001500 m
  
  
  **************************        Volume         Depth
  Runoff Quantity Continuity     hectare-m            mm
  **************************     ---------       -------
  Total Precipitation ......         1.170         6.491
  Evaporation Loss .........         0.000         0.000
  Infiltration Loss ........         0.000         0.000
  Surface Runoff ...........         1.147         6.367
  Final Storage ............         0.022         0.124
  Continuity Error (%) .....        -0.012
  
  
  **************************        Volume        Volume
  Flow Routing Continuity        hectare-m      10^6 ltr
  **************************     ---------     ---------
  Dry Weather Inflow .......         0.396         3.955
  Wet Weather Inflow .......         1.147        11.473
  Groundwater Inflow .......         0.000         0.000
  RDII Inflow ..............         0.000         0.000
  External Inflow ..........         0.000         0.000
  External Outflow .........         0.557         5.575
  Flooding Loss ............         0.165         1.646
  Evaporation Loss .........         0.000         0.000
  Exfiltration Loss ........         0.000         0.000
  Initial Stored Volume ....         0.000         0.000
  Final Stored Volume ......         0.630         6.303
  Continuity Error (%) .....        12.347
  
  
  *************************
  Highest Continuity Errors
  *************************
  Node T2 (34.25%)
  Node T5 (31.85%)
  Node T4 (23.20%)
  Node T3 (20.31%)
  Node T6 (19.55%)
  
  
  ***************************
  Time-Step Critical Elements
  ***************************
  None
  
  
  ********************************
  Highest Flow Instability Indexes
  ********************************
  All links are stable.
  
  
  *************************
  Routing Time Step Summary
  *************************
  Minimum Time Step           :     4.50 sec
  Average Time Step           :     5.00 sec
  Maximum Time Step           :     5.00 sec
  Percent in Steady State     :     0.00
  Average Iterations per Step :     2.13
  Percent Not Converging      :     0.41
  
  
  ***************************
  Subcatchment Runoff Summary
  ***************************
  
  ------------------------------------------------------------------------------------------------------------------------------
                            Total      Total      Total      Total     Imperv       Perv      Total       Total     Peak  Runoff
                           Precip      Runon       Evap      Infil     Runoff     Runoff     Runoff      Runoff   Runoff   Coeff
  Subcatchment                 mm         mm         mm         mm         mm         mm         mm    10^6 ltr      CMS
  ------------------------------------------------------------------------------------------------------------------------------
  SC01                       6.49       0.00       0.00       0.00       6.41       0.00       6.41        2.11     0.63   0.987
  SC02                       6.49       0.00       0.00       0.00       6.40       0.00       6.40        1.46     0.43   0.986
  SC03                       6.49       0.00       0.00       0.00       6.42       0.00       6.42        1.16     0.38   0.990
  SC04                       6.49       0.00       0.00       0.00       6.31       0.00       6.31        0.44     0.10   0.972
  SC05                       6.49       0.00       0.00       0.00       6.40       0.00       6.40        1.00     0.29   0.986
  SC06                       6.49       0.00       0.00       0.00       6.26       0.00       6.26        2.04     0.41   0.965
  SC07                       6.49       0.00       0.00       0.00       6.31       0.00       6.31        0.30     0.07   0.972
  SC08                       6.49       0.00       0.00       0.00       6.38       0.00       6.38        1.79     0.48   0.983
  SC09                       6.49       0.00       0.00       0.00       6.36       0.00       6.36        0.44     0.11   0.979
  SC010                      6.49       0.00       0.00       0.00       6.38       0.00       6.38        0.75     0.20   0.983
  
  
  ******************
  Node Depth Summary
  ******************
  
  ---------------------------------------------------------------------------------
                                 Average  Maximum  Maximum  Time of Max    Reported
                                   Depth    Depth      HGL   Occurrence   Max Depth
  Node                 Type       Meters   Meters   Meters  days hr:min      Meters
  ---------------------------------------------------------------------------------
  J1                   JUNCTION     0.07     0.19    34.19     0  01:36        0.19
  J3                   JUNCTION     0.09     0.12    18.12     0  05:20        0.12
  CSO7                 JUNCTION     0.12     1.20    35.20     0  01:37        1.20
  J5                   JUNCTION     0.06     0.14    32.14     0  01:40        0.14
  CSO9                 JUNCTION     0.14     1.55    41.55     0  01:40        1.55
  J8                   JUNCTION     0.11     0.24    36.24     0  01:40        0.24
  CSO8                 JUNCTION     0.18     2.00    34.00     0  01:36        2.00
  J10                  JUNCTION     0.09     0.28    29.28     0  01:38        0.28
  J13                  JUNCTION     0.06     0.18    29.18     0  01:36        0.18
  J15                  JUNCTION     0.16     0.31    15.31     0  01:40        0.31
  J16                  JUNCTION     0.07     0.20    30.20     0  01:36        0.20
  CSO10                JUNCTION     0.13     1.00    31.00     0  01:31        1.00
  J12                  JUNCTION     0.13     0.30    26.30     0  01:40        0.30
  J4                   JUNCTION     0.13     1.23    34.23     0  01:37        0.78
  J6                   JUNCTION     0.05     0.07    25.07     0  04:54        0.07
  J2                   JUNCTION     0.00     0.00    25.00     0  00:00        0.00
  J19                  JUNCTION     0.14     0.17     8.17     0  02:45        0.17
  J9                   JUNCTION     0.08     0.11    29.11     0  03:40        0.11
  J14                  JUNCTION     0.11     0.14    20.14     0  05:50        0.14
  J17                  JUNCTION     0.05     0.07    20.07     0  04:33        0.07
  J7                   JUNCTION     0.08     0.22    39.22     0  01:40        0.22
  J11                  JUNCTION     0.10     0.30    31.30     0  01:40        0.30
  J18                  JUNCTION     0.05     0.16    29.16     0  01:40        0.16
  Out_to_WWTP          OUTFALL      0.14     0.17     6.17     0  03:40        0.17
  T5                   STORAGE      3.83     5.00    32.00     0  02:53        5.00
  T4                   STORAGE      2.88     4.07    31.07     0  04:52        4.07
  T6                   STORAGE      3.79     5.00    36.00     0  02:24        5.00
  T3                   STORAGE      2.68     3.75    25.75     0  05:43        3.75
  T2                   STORAGE      2.68     3.66    24.66     0  04:31        3.66
  T1                   STORAGE      3.24     5.00    15.00     0  02:43        5.00
  
  
  *******************
  Node Inflow Summary
  *******************
  
  -------------------------------------------------------------------------------------------------
                                  Maximum  Maximum                  Lateral       Total        Flow
                                  Lateral    Total  Time of Max      Inflow      Inflow     Balance
                                   Inflow   Inflow   Occurrence      Volume      Volume       Error
  Node                 Type           CMS      CMS  days hr:min    10^6 ltr    10^6 ltr     Percent
  -------------------------------------------------------------------------------------------------
  J1                   JUNCTION     0.309    0.309     0  01:36        1.56        1.56       0.035
  J3                   JUNCTION     0.000    0.132     0  05:17           0        2.73       1.145
  CSO7                 JUNCTION     0.076    0.076     0  01:40        0.59        0.59       0.083
  J5                   JUNCTION     0.100    0.171     0  01:40       0.563        1.15       0.132
  CSO9                 JUNCTION     0.116    0.116     0  01:40       0.635       0.635       0.053
  J8                   JUNCTION     0.435    0.548     0  01:40        2.98        3.61       0.147
  CSO8                 JUNCTION     0.488    0.488     0  01:39        2.08        2.08       0.024
  J10                  JUNCTION     0.391    0.854     0  01:37        1.54        3.61       0.122
  J13                  JUNCTION     0.441    0.441     0  01:36        1.92        1.92      -0.292
  J15                  JUNCTION     0.000    0.851     0  01:36           0        6.84       0.966
  J16                  JUNCTION     0.651    0.651     0  01:36        2.67        2.67      -0.039
  CSO10                JUNCTION     0.208    0.208     0  01:38       0.889       0.889       0.035
  J12                  JUNCTION     0.000    0.851     0  01:38           0        5.19       0.279
  J4                   JUNCTION     0.000    0.074     0  01:37           0       0.589       0.556
  J6                   JUNCTION     0.000    0.025     0  04:52           0       0.521       0.664
  J2                   JUNCTION     0.000    0.000     0  00:00           0           0       0.000 ltr
  J19                  JUNCTION     0.000    0.271     0  02:43           0        5.59       0.185
  J9                   JUNCTION     0.000    0.075     0  02:24           0         1.6       1.383
  J14                  JUNCTION     0.000    0.107     0  05:43           0        2.21       0.281
  J17                  JUNCTION     0.000    0.028     0  04:31           0       0.594       1.220
  J7                   JUNCTION     0.000    0.116     0  01:40           0       0.634       0.500
  J11                  JUNCTION     0.000    0.486     0  01:40           0        2.08       0.313
  J18                  JUNCTION     0.000    0.202     0  01:40           0       0.887       0.065
  Out_to_WWTP          OUTFALL      0.000    0.271     0  02:45           0        5.57       0.000
  T5                   STORAGE      0.000    0.309     0  01:36           0        1.56      46.727
  T4                   STORAGE      0.000    0.169     0  01:40           0        1.15      30.212
  T6                   STORAGE      0.000    0.541     0  01:40           0        3.61      24.304
  T3                   STORAGE      0.000    0.840     0  01:40           0        5.17      25.493
  T2                   STORAGE      0.000    0.441     0  01:36           0        1.93      52.086
  T1                   STORAGE      0.000    0.832     0  01:40           0        6.77       7.992
  
  
  **********************
  Node Surcharge Summary
  **********************
  
  Surcharging occurs when water rises above the top of the highest conduit.
  ---------------------------------------------------------------------
                                               Max. Height   Min. Depth
                                   Hours       Above Crown    Below Rim
  Node                 Type      Surcharged         Meters       Meters
  ---------------------------------------------------------------------
  CSO7                 JUNCTION        0.30          0.945        0.000
  CSO9                 JUNCTION        0.36          1.234        0.448
  CSO8                 JUNCTION        0.36          1.547        0.000
  CSO10                JUNCTION        0.21          0.560        0.000
  J4                   JUNCTION        0.27          0.933        0.767
  
  
  *********************
  Node Flooding Summary
  *********************
  
  Flooding refers to all water that overflows a node, whether it ponds or not.
  --------------------------------------------------------------------------
                                                             Total   Maximum
                                 Maximum   Time of Max       Flood    Ponded
                        Hours       Rate    Occurrence      Volume     Depth
  Node                 Flooded       CMS   days hr:min    10^6 ltr    Meters
  --------------------------------------------------------------------------
  CSO7                    0.08     0.007      0  01:37       0.001     0.000
  CSO8                    0.06     0.002      0  01:38       0.000     0.000
  CSO10                   0.11     0.009      0  01:31       0.002     0.000
  T5                      4.94     0.115      0  03:01       0.563     0.000
  T6                      2.50     0.205      0  02:24       0.801     0.000
  T1                      0.77     0.160      0  03:02       0.278     0.000
  
  
  **********************
  Storage Volume Summary
  **********************
  
  --------------------------------------------------------------------------------------------------
                         Average     Avg  Evap Exfil       Maximum     Max    Time of Max    Maximum
                          Volume    Pcnt  Pcnt  Pcnt        Volume    Pcnt     Occurrence    Outflow
  Storage Unit           1000 m3    Full  Loss  Loss       1000 m3    Full    days hr:min        CMS
  --------------------------------------------------------------------------------------------------
  T5                       0.383      77     0     0         0.500     100       0  02:53      0.000
  T4                       0.288      58     0     0         0.407      81       0  04:52      0.025
  T6                       0.455      76     0     0         0.600     100       0  02:24      0.075
  T3                       1.392      54     0     0         1.951      75       0  05:43      0.107
  T2                       0.536      54     0     0         0.732      73       0  04:31      0.028
  T1                       0.454      65     0     0         0.700     100       0  02:43      0.271
  
  
  ***********************
  Outfall Loading Summary
  ***********************
  
  -----------------------------------------------------------
                         Flow       Avg       Max       Total
                         Freq      Flow      Flow      Volume
  Outfall Node           Pcnt       CMS       CMS    10^6 ltr
  -----------------------------------------------------------
  Out_to_WWTP           99.01     0.200     0.271       5.575
  -----------------------------------------------------------
  System                99.01     0.200     0.271       5.575
  
  
  ********************
  Link Flow Summary
  ********************
  
  -----------------------------------------------------------------------------
                                 Maximum  Time of Max   Maximum    Max/    Max/
                                  |Flow|   Occurrence   |Veloc|    Full    Full
  Link                 Type          CMS  days hr:min     m/sec    Flow   Depth
  -----------------------------------------------------------------------------
  C1                   CONDUIT     0.000     0  00:00      0.00    0.00    0.06
  C6                   CONDUIT     0.070     0  01:40      1.28    1.12    0.73
  C2                   CONDUIT     0.025     0  04:54      0.97    0.03    0.15
  C9                   CONDUIT     0.113     0  01:40      1.30    0.39    0.46
  C16                  CONDUIT     0.484     0  01:40      1.75    0.05    0.14
  C3                   CONDUIT     0.107     0  05:44      1.80    0.04    0.13
  C19                  CONDUIT     0.028     0  04:33      0.61    0.01    0.15
  C11                  CONDUIT     0.132     0  05:20      1.49    0.01    0.08
  C20                  CONDUIT     0.651     0  01:36      3.00    0.02    0.13
  C22                  CONDUIT     0.202     0  01:40      1.67    0.09    0.29
  C12                  CONDUIT     0.075     0  03:40      1.09    0.01    0.08
  C17                  CONDUIT     0.851     0  01:38      3.06    0.04    0.15
  C10                  CONDUIT     0.541     0  01:40      1.65    0.06    0.58
  C13                  CONDUIT     0.840     0  01:40      1.59    0.05    0.55
  C18                  CONDUIT     0.441     0  01:36      1.72    0.02    0.53
  C23                  CONDUIT     0.832     0  01:40      1.60    0.09    0.60
  C4                   CONDUIT     0.309     0  01:36      1.97    0.07    0.59
  C7                   CONDUIT     0.169     0  01:40      1.41    0.04    0.57
  C14                  CONDUIT     0.271     0  02:45      2.08    0.02    0.09
  C5                   CONDUIT     0.074     0  01:37      1.43    1.26    1.00
  C8                   CONDUIT     0.116     0  01:40      1.63    1.46    0.84
  C15                  CONDUIT     0.486     0  01:40      3.42    1.55    0.83
  C21                  CONDUIT     0.202     0  01:40      1.83    1.16    0.69
  V4                   ORIFICE     0.025     0  04:52                      0.35
  V5                   ORIFICE     0.000     0  00:00                      0.00
  V1                   ORIFICE     0.271     0  02:43                      1.00
  V6                   ORIFICE     0.075     0  02:24                      0.43
  V3                   ORIFICE     0.107     0  05:43                      0.65
  V2                   ORIFICE     0.028     0  04:31                      0.24
  
  
  ***************************
  Flow Classification Summary
  ***************************
  
  -------------------------------------------------------------------------------------
                      Adjusted    ---------- Fraction of Time in Flow Class ---------- 
                       /Actual         Up    Down  Sub   Sup   Up    Down  Norm  Inlet 
  Conduit               Length    Dry  Dry   Dry   Crit  Crit  Crit  Crit  Ltd   Ctrl  
  -------------------------------------------------------------------------------------
  C1                      1.00   0.21  0.79  0.00  0.00  0.00  0.00  0.00  0.00  0.00
  C6                      1.00   0.00  0.00  0.00  0.06  0.94  0.00  0.00  0.00  0.00
  C2                      1.00   0.21  0.00  0.00  0.00  0.79  0.00  0.00  0.77  0.00
  C9                      1.00   0.00  0.00  0.00  1.00  0.00  0.00  0.00  1.00  0.00
  C16                     1.00   0.00  0.00  0.00  0.59  0.41  0.00  0.00  0.48  0.00
  C3                      1.00   0.21  0.00  0.00  0.00  0.79  0.00  0.00  0.00  0.00
  C19                     1.00   0.00  0.21  0.00  0.79  0.00  0.00  0.00  0.79  0.00
  C11                     1.00   0.00  0.21  0.00  0.19  0.60  0.00  0.00  0.79  0.00
  C20                     1.00   0.00  0.00  0.00  0.56  0.44  0.00  0.00  0.97  0.00
  C22                     1.00   0.00  0.00  0.00  0.81  0.19  0.00  0.00  1.00  0.00
  C12                     1.00   0.00  0.21  0.00  0.25  0.53  0.00  0.00  0.74  0.00
  C17                     1.00   0.00  0.00  0.00  0.41  0.59  0.00  0.00  0.90  0.00
  C10                     1.00   0.00  0.00  0.00  0.97  0.03  0.00  0.00  0.98  0.00
  C13                     1.00   0.00  0.00  0.00  0.85  0.15  0.00  0.00  0.91  0.00
  C18                     1.00   0.00  0.00  0.00  0.95  0.05  0.00  0.00  0.97  0.00
  C23                     1.00   0.00  0.00  0.00  0.82  0.17  0.00  0.00  0.94  0.00
  C4                      1.00   0.00  0.00  0.00  0.97  0.03  0.00  0.00  0.98  0.00
  C7                      1.00   0.00  0.00  0.00  0.95  0.05  0.00  0.00  0.97  0.00
  C14                     1.00   0.00  0.00  0.00  0.00  0.99  0.00  0.00  0.31  0.00
  C5                      1.00   0.00  0.00  0.00  0.92  0.08  0.00  0.00  0.93  0.00
  C8                      1.00   0.00  0.00  0.00  0.07  0.93  0.00  0.00  0.00  0.00
  C15                     1.00   0.00  0.00  0.00  0.00  1.00  0.00  0.00  0.00  0.00
  C21                     1.00   0.00  0.00  0.00  0.01  0.99  0.00  0.00  0.00  0.00
  
  
  *************************
  Conduit Surcharge Summary
  *************************
  
  ----------------------------------------------------------------------------
                                                           Hours        Hours 
                         --------- Hours Full --------   Above Full   Capacity
  Conduit                Both Ends  Upstream  Dnstream   Normal Flow   Limited
  ----------------------------------------------------------------------------
  C6                          0.01      0.27      0.01      0.14         0.01
  C10                         0.01      0.01      6.25      0.01         0.01
  C13                         0.01      0.01      5.72      0.01         0.01
  C18                         0.01      0.01      5.92      0.01         0.01
  C23                         0.01      0.01      6.22      0.01         0.01
  C4                          0.01      0.01      6.37      0.01         0.01
  C7                          0.01      0.01      6.19      0.01         0.01
  C5                          0.28      0.30      0.39      0.32         0.24
  C8                          0.01      0.36      0.01      0.36         0.01
  C15                         0.01      0.36      0.01      0.39         0.01
  C21                         0.01      0.21      0.01      0.21         0.01
  

  Analysis begun on:  Fri Sep  3 20:11:58 2021
  Analysis ended on:  Fri Sep  3 20:11:58 2021
  Total elapsed time: < 1 sec