
  EPA STORM WATER MANAGEMENT MODEL - VERSION 5.1 (Build 5.3.0.dev0)
  --------------------------------------------------------------

  
  *********************************************************
  NOTE: The summary statistics displayed in this report are
  based on results found at every computational time step,  
  not just on results from each reporting time step.
  *********************************************************
  
  ****************
  Analysis Options
  ****************
  Flow Units ............... CMS
  Process Models:
    Rainfall/Runoff ........ YES
    RDII ................... NO
    Snowmelt ............... NO
    Groundwater ............ NO
    Flow Routing ........... YES
    Ponding Allowed ........ YES
    Water Quality .......... NO
  Infiltration Method ...... HORTON
  Flow Routing Method ...... DYNWAVE
  Surcharge Method ......... EXTRAN
  Starting Date ............ 08/28/2015 08:00:00
  Ending Date .............. 08/28/2015 15:50:00
  Antecedent Dry Days ...... 0.0
  Report Time Step ......... 00:01:00
  Wet Time Step ............ 00:01:00
  Dry Time Step ............ 00:01:00
  Routing Time Step ........ 5.00 sec
  Variable Time Step ....... YES
  Maximum Trials ........... 8
  Number of Threads ........ 1
  Head Tolerance ........... 0.001500 m
  
  
  **************************        Volume         Depth
  Runoff Quantity Continuity     hectare-m            mm
  **************************     ---------       -------
  Total Precipitation ......         1.327         7.364
  Evaporation Loss .........         0.000         0.000
  Infiltration Loss ........         0.000         0.000
  Surface Runoff ...........         1.304         7.238
  Final Storage ............         0.023         0.126
  Continuity Error (%) .....        -0.007
  
  
  **************************        Volume        Volume
  Flow Routing Continuity        hectare-m      10^6 ltr
  **************************     ---------     ---------
  Dry Weather Inflow .......         0.396         3.956
  Wet Weather Inflow .......         1.304        13.044
  Groundwater Inflow .......         0.000         0.000
  RDII Inflow ..............         0.000         0.000
  External Inflow ..........         0.000         0.000
  External Outflow .........         0.549         5.493
  Flooding Loss ............         0.267         2.666
  Evaporation Loss .........         0.000         0.000
  Exfiltration Loss ........         0.000         0.000
  Initial Stored Volume ....         0.000         0.000
  Final Stored Volume ......         0.668         6.684
  Continuity Error (%) .....        12.688
  
  
  *************************
  Highest Continuity Errors
  *************************
  Node T2 (34.91%)
  Node T5 (29.22%)
  Node T4 (24.04%)
  Node T3 (20.75%)
  Node T6 (17.94%)
  
  
  ***************************
  Time-Step Critical Elements
  ***************************
  None
  
  
  ********************************
  Highest Flow Instability Indexes
  ********************************
  All links are stable.
  
  
  *************************
  Routing Time Step Summary
  *************************
  Minimum Time Step           :     1.74 sec
  Average Time Step           :     5.00 sec
  Maximum Time Step           :     5.00 sec
  Percent in Steady State     :     0.00
  Average Iterations per Step :     2.11
  Percent Not Converging      :     0.23
  
  
  ***************************
  Subcatchment Runoff Summary
  ***************************
  
  ------------------------------------------------------------------------------------------------------------------------------
                            Total      Total      Total      Total     Imperv       Perv      Total       Total     Peak  Runoff
                           Precip      Runon       Evap      Infil     Runoff     Runoff     Runoff      Runoff   Runoff   Coeff
  Subcatchment                 mm         mm         mm         mm         mm         mm         mm    10^6 ltr      CMS
  ------------------------------------------------------------------------------------------------------------------------------
  SC01                       7.36       0.00       0.00       0.00       7.28       0.00       7.28        2.40     0.57   0.989
  SC02                       7.36       0.00       0.00       0.00       7.27       0.00       7.27        1.65     0.38   0.988
  SC03                       7.36       0.00       0.00       0.00       7.30       0.00       7.30        1.31     0.33   0.991
  SC04                       7.36       0.00       0.00       0.00       7.18       0.00       7.18        0.50     0.09   0.975
  SC05                       7.36       0.00       0.00       0.00       7.27       0.00       7.27        1.13     0.26   0.988
  SC06                       7.36       0.00       0.00       0.00       7.13       0.00       7.13        2.32     0.40   0.968
  SC07                       7.36       0.00       0.00       0.00       7.18       0.00       7.18        0.34     0.06   0.975
  SC08                       7.36       0.00       0.00       0.00       7.25       0.00       7.25        2.03     0.44   0.985
  SC09                       7.36       0.00       0.00       0.00       7.23       0.00       7.23        0.50     0.10   0.981
  SC010                      7.36       0.00       0.00       0.00       7.25       0.00       7.25        0.85     0.19   0.985
  
  
  ******************
  Node Depth Summary
  ******************
  
  ---------------------------------------------------------------------------------
                                 Average  Maximum  Maximum  Time of Max    Reported
                                   Depth    Depth      HGL   Occurrence   Max Depth
  Node                 Type       Meters   Meters   Meters  days hr:min      Meters
  ---------------------------------------------------------------------------------
  J1                   JUNCTION     0.07     0.18    34.18     0  02:00        0.18
  J3                   JUNCTION     0.09     0.12    18.12     0  04:58        0.12
  CSO7                 JUNCTION     0.16     1.20    35.20     0  01:59        1.20
  J5                   JUNCTION     0.07     0.14    32.14     0  02:05        0.14
  CSO9                 JUNCTION     0.17     1.33    41.33     0  02:00        1.31
  J8                   JUNCTION     0.11     0.24    36.24     0  02:07        0.24
  CSO8                 JUNCTION     0.20     1.64    33.64     0  01:59        1.64
  J10                  JUNCTION     0.10     0.27    29.27     0  02:01        0.27
  J13                  JUNCTION     0.07     0.17    29.17     0  01:59        0.17
  J15                  JUNCTION     0.16     0.30    15.30     0  02:06        0.30
  J16                  JUNCTION     0.07     0.19    30.19     0  01:58        0.19
  CSO10                JUNCTION     0.14     0.89    30.89     0  01:55        0.81
  J12                  JUNCTION     0.15     0.30    26.30     0  02:05        0.30
  J4                   JUNCTION     0.16     1.20    34.20     0  01:59        1.07
  J6                   JUNCTION     0.05     0.07    25.07     0  04:43        0.07
  J2                   JUNCTION     0.00     0.00    25.00     0  00:00        0.00
  J19                  JUNCTION     0.14     0.17     8.17     0  02:28        0.17
  J9                   JUNCTION     0.08     0.11    29.11     0  03:44        0.11
  J14                  JUNCTION     0.11     0.15    20.15     0  05:05        0.15
  J17                  JUNCTION     0.05     0.07    20.07     0  04:22        0.07
  J7                   JUNCTION     0.09     0.21    39.21     0  02:04        0.21
  J11                  JUNCTION     0.10     0.29    31.29     0  02:02        0.29
  J18                  JUNCTION     0.06     0.16    29.16     0  02:01        0.16
  Out_to_WWTP          OUTFALL      0.14     0.17     6.17     0  03:46        0.17
  T5                   STORAGE      3.76     5.00    32.00     0  02:39        5.00
  T4                   STORAGE      3.18     4.64    31.64     0  04:41        4.64
  T6                   STORAGE      3.69     5.00    36.00     0  02:25        5.00
  T3                   STORAGE      2.90     4.16    26.16     0  05:04        4.16
  T2                   STORAGE      2.96     4.19    25.19     0  04:20        4.19
  T1                   STORAGE      3.22     5.00    15.00     0  02:26        5.00
  
  
  *******************
  Node Inflow Summary
  *******************
  
  -------------------------------------------------------------------------------------------------
                                  Maximum  Maximum                  Lateral       Total        Flow
                                  Lateral    Total  Time of Max      Inflow      Inflow     Balance
                                   Inflow   Inflow   Occurrence      Volume      Volume       Error
  Node                 Type           CMS      CMS  days hr:min    10^6 ltr    10^6 ltr     Percent
  -------------------------------------------------------------------------------------------------
  J1                   JUNCTION     0.282    0.282     0  02:00         1.7         1.7       0.045
  J3                   JUNCTION     0.000    0.140     0  04:56           0         2.8       1.160
  CSO7                 JUNCTION     0.075    0.075     0  02:04       0.631       0.631       0.067
  J5                   JUNCTION     0.097    0.168     0  02:05       0.623        1.25       0.135
  CSO9                 JUNCTION     0.109    0.109     0  02:02       0.695       0.695       0.041
  J8                   JUNCTION     0.439    0.547     0  02:06        3.26        3.95       0.148
  CSO8                 JUNCTION     0.450    0.450     0  02:00        2.32        2.32       0.010
  J10                  JUNCTION     0.343    0.779     0  02:00         1.7        4.01       0.117
  J13                  JUNCTION     0.399    0.399     0  02:00        2.12        2.12      -0.202
  J15                  JUNCTION     0.000    0.825     0  02:03           0        7.33       0.944
  J16                  JUNCTION     0.585    0.585     0  01:58        2.96        2.96      -0.022
  CSO10                JUNCTION     0.192    0.192     0  02:00       0.991       0.991       0.020
  J12                  JUNCTION     0.000    0.810     0  02:03           0        5.54       0.313
  J4                   JUNCTION     0.000    0.072     0  01:59           0       0.628       0.525
  J6                   JUNCTION     0.000    0.027     0  04:41           0       0.539       0.674
  J2                   JUNCTION     0.000    0.000     0  00:00           0           0       0.000 ltr
  J19                  JUNCTION     0.000    0.271     0  02:26           0         5.5       0.194
  J9                   JUNCTION     0.000    0.075     0  02:25           0        1.56       1.438
  J14                  JUNCTION     0.000    0.113     0  05:05           0        2.27       0.285
  J17                  JUNCTION     0.000    0.030     0  04:20           0       0.616       1.235
  J7                   JUNCTION     0.000    0.109     0  02:02           0       0.695       0.453
  J11                  JUNCTION     0.000    0.450     0  02:00           0        2.32       0.268
  J18                  JUNCTION     0.000    0.192     0  02:00           0       0.991       0.059
  Out_to_WWTP          OUTFALL      0.000    0.271     0  02:28           0        5.49       0.000
  T5                   STORAGE      0.000    0.281     0  02:00           0         1.7      41.290
  T4                   STORAGE      0.000    0.168     0  02:05           0        1.25      31.642
  T6                   STORAGE      0.000    0.546     0  02:07           0        3.95      21.861
  T3                   STORAGE      0.000    0.803     0  02:05           0        5.53      26.175
  T2                   STORAGE      0.000    0.398     0  01:59           0        2.13      53.643
  T1                   STORAGE      0.000    0.813     0  02:06           0        7.26       7.953
  
  
  **********************
  Node Surcharge Summary
  **********************
  
  Surcharging occurs when water rises above the top of the highest conduit.
  ---------------------------------------------------------------------
                                               Max. Height   Min. Depth
                                   Hours       Above Crown    Below Rim
  Node                 Type      Surcharged         Meters       Meters
  ---------------------------------------------------------------------
  CSO7                 JUNCTION        0.71          0.945        0.000
  CSO9                 JUNCTION        0.69          1.009        0.673
  CSO8                 JUNCTION        0.62          1.186        0.361
  CSO10                JUNCTION        0.31          0.450        0.110
  J4                   JUNCTION        0.69          0.899        0.801
  
  
  *********************
  Node Flooding Summary
  *********************
  
  Flooding refers to all water that overflows a node, whether it ponds or not.
  --------------------------------------------------------------------------
                                                             Total   Maximum
                                 Maximum   Time of Max       Flood    Ponded
                        Hours       Rate    Occurrence      Volume     Depth
  Node                 Flooded       CMS   days hr:min    10^6 ltr    Meters
  --------------------------------------------------------------------------
  CSO7                    0.26     0.006      0  02:00       0.003     0.000
  T5                      5.18     0.156      0  02:39       0.700     0.000
  T6                      2.58     0.412      0  02:25       1.184     0.000
  T1                      1.14     0.392      0  02:26       0.779     0.000
  
  
  **********************
  Storage Volume Summary
  **********************
  
  --------------------------------------------------------------------------------------------------
                         Average     Avg  Evap Exfil       Maximum     Max    Time of Max    Maximum
                          Volume    Pcnt  Pcnt  Pcnt        Volume    Pcnt     Occurrence    Outflow
  Storage Unit           1000 m3    Full  Loss  Loss       1000 m3    Full    days hr:min        CMS
  --------------------------------------------------------------------------------------------------
  T5                       0.376      75     0     0         0.500     100       0  02:39      0.000
  T4                       0.318      64     0     0         0.464      93       0  04:41      0.027
  T6                       0.443      74     0     0         0.600     100       0  02:25      0.075
  T3                       1.509      58     0     0         2.165      83       0  05:04      0.113
  T2                       0.593      59     0     0         0.837      84       0  04:20      0.030
  T1                       0.451      64     0     0         0.700     100       0  02:26      0.271
  
  
  ***********************
  Outfall Loading Summary
  ***********************
  
  -----------------------------------------------------------
                         Flow       Avg       Max       Total
                         Freq      Flow      Flow      Volume
  Outfall Node           Pcnt       CMS       CMS    10^6 ltr
  -----------------------------------------------------------
  Out_to_WWTP           99.01     0.197     0.271       5.492
  -----------------------------------------------------------
  System                99.01     0.197     0.271       5.492
  
  
  ********************
  Link Flow Summary
  ********************
  
  -----------------------------------------------------------------------------
                                 Maximum  Time of Max   Maximum    Max/    Max/
                                  |Flow|   Occurrence   |Veloc|    Full    Full
  Link                 Type          CMS  days hr:min     m/sec    Flow   Depth
  -----------------------------------------------------------------------------
  C1                   CONDUIT     0.000     0  00:00      0.00    0.00    0.06
  C6                   CONDUIT     0.070     0  02:05      1.28    1.12    0.73
  C2                   CONDUIT     0.027     0  04:43      0.97    0.03    0.16
  C9                   CONDUIT     0.108     0  02:04      1.26    0.37    0.45
  C16                  CONDUIT     0.448     0  02:02      1.71    0.04    0.14
  C3                   CONDUIT     0.113     0  05:05      1.82    0.04    0.13
  C19                  CONDUIT     0.030     0  04:22      0.62    0.01    0.18
  C11                  CONDUIT     0.140     0  04:58      1.52    0.01    0.10
  C20                  CONDUIT     0.584     0  01:58      2.84    0.02    0.12
  C22                  CONDUIT     0.191     0  02:01      1.63    0.09    0.29
  C12                  CONDUIT     0.075     0  03:44      1.09    0.01    0.10
  C17                  CONDUIT     0.776     0  02:01      2.96    0.04    0.14
  C10                  CONDUIT     0.546     0  02:07      1.65    0.06    0.58
  C13                  CONDUIT     0.803     0  02:05      1.31    0.05    0.57
  C18                  CONDUIT     0.398     0  01:59      1.72    0.01    0.54
  C23                  CONDUIT     0.813     0  02:06      1.34    0.09    0.60
  C4                   CONDUIT     0.281     0  02:00      1.97    0.07    0.59
  C7                   CONDUIT     0.168     0  02:05      1.41    0.04    0.57
  C14                  CONDUIT     0.271     0  02:28      2.08    0.02    0.09
  C5                   CONDUIT     0.072     0  01:59      1.40    1.22    1.00
  C8                   CONDUIT     0.109     0  02:02      1.56    1.38    0.83
  C15                  CONDUIT     0.450     0  02:00      3.20    1.43    0.81
  C21                  CONDUIT     0.192     0  02:00      1.76    1.10    0.68
  V4                   ORIFICE     0.027     0  04:41                      0.35
  V5                   ORIFICE     0.000     0  00:00                      0.00
  V1                   ORIFICE     0.271     0  02:26                      1.00
  V6                   ORIFICE     0.075     0  02:25                      0.43
  V3                   ORIFICE     0.113     0  05:05                      0.65
  V2                   ORIFICE     0.030     0  04:20                      0.24
  
  
  ***************************
  Flow Classification Summary
  ***************************
  
  -------------------------------------------------------------------------------------
                      Adjusted    ---------- Fraction of Time in Flow Class ---------- 
                       /Actual         Up    Down  Sub   Sup   Up    Down  Norm  Inlet 
  Conduit               Length    Dry  Dry   Dry   Crit  Crit  Crit  Crit  Ltd   Ctrl  
  -------------------------------------------------------------------------------------
  C1                      1.00   0.24  0.76  0.00  0.00  0.00  0.00  0.00  0.00  0.00
  C6                      1.00   0.00  0.00  0.00  0.12  0.88  0.00  0.00  0.00  0.00
  C2                      1.00   0.23  0.00  0.00  0.00  0.76  0.00  0.00  0.75  0.00
  C9                      1.00   0.00  0.00  0.00  1.00  0.00  0.00  0.00  1.00  0.00
  C16                     1.00   0.00  0.00  0.00  0.59  0.41  0.00  0.00  0.48  0.00
  C3                      1.00   0.23  0.00  0.00  0.00  0.76  0.00  0.00  0.00  0.00
  C19                     1.00   0.00  0.23  0.00  0.77  0.00  0.00  0.00  0.77  0.00
  C11                     1.00   0.00  0.24  0.00  0.17  0.60  0.00  0.00  0.76  0.00
  C20                     1.00   0.00  0.00  0.00  0.56  0.44  0.00  0.00  0.98  0.00
  C22                     1.00   0.00  0.00  0.00  0.73  0.27  0.00  0.00  1.00  0.00
  C12                     1.00   0.00  0.23  0.00  0.51  0.25  0.00  0.00  0.74  0.00
  C17                     1.00   0.00  0.00  0.00  0.47  0.53  0.00  0.00  0.89  0.00
  C10                     1.00   0.00  0.00  0.00  0.97  0.03  0.00  0.00  0.98  0.00
  C13                     1.00   0.00  0.00  0.00  0.86  0.14  0.00  0.00  0.51  0.00
  C18                     1.00   0.00  0.00  0.00  0.95  0.05  0.00  0.00  0.97  0.00
  C23                     1.00   0.00  0.00  0.00  0.81  0.19  0.00  0.00  0.94  0.00
  C4                      1.00   0.00  0.00  0.00  0.97  0.03  0.00  0.00  0.98  0.00
  C7                      1.00   0.00  0.00  0.00  0.95  0.05  0.00  0.00  0.97  0.00
  C14                     1.00   0.00  0.00  0.00  0.00  0.99  0.00  0.00  0.26  0.00
  C5                      1.00   0.00  0.00  0.00  0.90  0.10  0.00  0.00  0.89  0.00
  C8                      1.00   0.00  0.00  0.00  0.13  0.87  0.00  0.00  0.00  0.00
  C15                     1.00   0.00  0.00  0.00  0.00  1.00  0.00  0.00  0.00  0.00
  C21                     1.00   0.00  0.00  0.00  0.01  0.99  0.00  0.00  0.00  0.00
  
  
  *************************
  Conduit Surcharge Summary
  *************************
  
  ----------------------------------------------------------------------------
                                                           Hours        Hours 
                         --------- Hours Full --------   Above Full   Capacity
  Conduit                Both Ends  Upstream  Dnstream   Normal Flow   Limited
  ----------------------------------------------------------------------------
  C6                          0.01      0.69      0.01      0.45         0.01
  C10                         0.01      0.01      6.03      0.01         0.01
  C13                         0.01      0.01      5.56      0.01         0.01
  C18                         0.01      0.01      5.70      0.01         0.01
  C23                         0.01      0.01      5.94      0.01         0.01
  C4                          0.01      0.01      6.19      0.01         0.01
  C7                          0.01      0.01      5.96      0.01         0.01
  C5                          0.69      0.71      0.84      0.71         0.62
  C8                          0.01      0.69      0.01      0.67         0.01
  C15                         0.01      0.62      0.01      0.67         0.01
  C21                         0.01      0.31      0.01      0.26         0.01
  

  Analysis begun on:  Fri Sep  3 20:12:58 2021
  Analysis ended on:  Fri Sep  3 20:12:58 2021
  Total elapsed time: < 1 sec