
  EPA STORM WATER MANAGEMENT MODEL - VERSION 5.1 (Build 5.3.0.dev0)
  --------------------------------------------------------------

  
  *********************************************************
  NOTE: The summary statistics displayed in this report are
  based on results found at every computational time step,  
  not just on results from each reporting time step.
  *********************************************************
  
  ****************
  Analysis Options
  ****************
  Flow Units ............... CMS
  Process Models:
    Rainfall/Runoff ........ YES
    RDII ................... NO
    Snowmelt ............... NO
    Groundwater ............ NO
    Flow Routing ........... YES
    Ponding Allowed ........ YES
    Water Quality .......... NO
  Infiltration Method ...... HORTON
  Flow Routing Method ...... DYNWAVE
  Surcharge Method ......... EXTRAN
  Starting Date ............ 08/28/2015 08:00:00
  Ending Date .............. 08/28/2015 15:50:00
  Antecedent Dry Days ...... 0.0
  Report Time Step ......... 00:01:00
  Wet Time Step ............ 00:01:00
  Dry Time Step ............ 00:01:00
  Routing Time Step ........ 5.00 sec
  Variable Time Step ....... YES
  Maximum Trials ........... 8
  Number of Threads ........ 1
  Head Tolerance ........... 0.001500 m
  
  
  **************************        Volume         Depth
  Runoff Quantity Continuity     hectare-m            mm
  **************************     ---------       -------
  Total Precipitation ......         0.774         4.294
  Evaporation Loss .........         0.000         0.000
  Infiltration Loss ........         0.000         0.000
  Surface Runoff ...........         0.751         4.169
  Final Storage ............         0.023         0.126
  Continuity Error (%) .....        -0.008
  
  
  **************************        Volume        Volume
  Flow Routing Continuity        hectare-m      10^6 ltr
  **************************     ---------     ---------
  Dry Weather Inflow .......         0.396         3.955
  Wet Weather Inflow .......         0.751         7.512
  Groundwater Inflow .......         0.000         0.000
  RDII Inflow ..............         0.000         0.000
  External Inflow ..........         0.000         0.000
  External Outflow .........         0.427         4.267
  Flooding Loss ............         0.038         0.378
  Evaporation Loss .........         0.000         0.000
  Exfiltration Loss ........         0.000         0.000
  Initial Stored Volume ....         0.000         0.000
  Final Stored Volume ......         0.547         5.472
  Continuity Error (%) .....        11.771
  
  
  *************************
  Highest Continuity Errors
  *************************
  Node T5 (40.91%)
  Node T2 (34.64%)
  Node T6 (25.91%)
  Node T4 (23.61%)
  Node T3 (20.84%)
  
  
  ***************************
  Time-Step Critical Elements
  ***************************
  None
  
  
  ********************************
  Highest Flow Instability Indexes
  ********************************
  All links are stable.
  
  
  *************************
  Routing Time Step Summary
  *************************
  Minimum Time Step           :     4.50 sec
  Average Time Step           :     5.00 sec
  Maximum Time Step           :     5.00 sec
  Percent in Steady State     :     0.00
  Average Iterations per Step :     2.00
  Percent Not Converging      :     0.00
  
  
  ***************************
  Subcatchment Runoff Summary
  ***************************
  
  ------------------------------------------------------------------------------------------------------------------------------
                            Total      Total      Total      Total     Imperv       Perv      Total       Total     Peak  Runoff
                           Precip      Runon       Evap      Infil     Runoff     Runoff     Runoff      Runoff   Runoff   Coeff
  Subcatchment                 mm         mm         mm         mm         mm         mm         mm    10^6 ltr      CMS
  ------------------------------------------------------------------------------------------------------------------------------
  SC01                       4.29       0.00       0.00       0.00       4.21       0.00       4.21        1.39     0.27   0.980
  SC02                       4.29       0.00       0.00       0.00       4.20       0.00       4.20        0.96     0.19   0.979
  SC03                       4.29       0.00       0.00       0.00       4.23       0.00       4.23        0.76     0.15   0.984
  SC04                       4.29       0.00       0.00       0.00       4.11       0.00       4.11        0.28     0.05   0.957
  SC05                       4.29       0.00       0.00       0.00       4.20       0.00       4.20        0.66     0.13   0.979
  SC06                       4.29       0.00       0.00       0.00       4.06       0.00       4.06        1.32     0.23   0.946
  SC07                       4.29       0.00       0.00       0.00       4.11       0.00       4.11        0.20     0.03   0.957
  SC08                       4.29       0.00       0.00       0.00       4.18       0.00       4.18        1.17     0.22   0.973
  SC09                       4.29       0.00       0.00       0.00       4.16       0.00       4.16        0.29     0.05   0.968
  SC010                      4.29       0.00       0.00       0.00       4.18       0.00       4.18        0.49     0.09   0.974
  
  
  ******************
  Node Depth Summary
  ******************
  
  ---------------------------------------------------------------------------------
                                 Average  Maximum  Maximum  Time of Max    Reported
                                   Depth    Depth      HGL   Occurrence   Max Depth
  Node                 Type       Meters   Meters   Meters  days hr:min      Meters
  ---------------------------------------------------------------------------------
  J1                   JUNCTION     0.07     0.13    34.13     0  03:01        0.13
  J3                   JUNCTION     0.07     0.11    18.11     0  06:46        0.11
  CSO7                 JUNCTION     0.09     0.17    34.17     0  03:01        0.17
  J5                   JUNCTION     0.06     0.11    32.11     0  03:01        0.11
  CSO9                 JUNCTION     0.10     0.22    40.22     0  03:01        0.22
  J8                   JUNCTION     0.10     0.19    36.19     0  03:01        0.19
  CSO8                 JUNCTION     0.11     0.30    32.30     0  03:01        0.30
  J10                  JUNCTION     0.09     0.19    29.19     0  03:01        0.19
  J13                  JUNCTION     0.06     0.12    29.12     0  03:01        0.12
  J15                  JUNCTION     0.14     0.24    15.24     0  03:02        0.24
  J16                  JUNCTION     0.06     0.14    30.14     0  03:01        0.14
  CSO10                JUNCTION     0.10     0.26    30.26     0  03:01        0.26
  J12                  JUNCTION     0.12     0.22    26.22     0  03:03        0.22
  J4                   JUNCTION     0.11     0.20    33.20     0  03:03        0.20
  J6                   JUNCTION     0.04     0.07    25.07     0  05:18        0.07
  J2                   JUNCTION     0.00     0.00    25.00     0  00:00        0.00
  J19                  JUNCTION     0.12     0.16     8.16     0  03:40        0.16
  J9                   JUNCTION     0.07     0.11    29.11     0  04:41        0.11
  J14                  JUNCTION     0.09     0.13    20.13     0  07:50        0.13
  J17                  JUNCTION     0.04     0.06    20.06     0  05:06        0.06
  J7                   JUNCTION     0.08     0.15    39.15     0  03:02        0.15
  J11                  JUNCTION     0.09     0.21    31.21     0  03:01        0.21
  J18                  JUNCTION     0.05     0.11    29.11     0  03:01        0.11
  Out_to_WWTP          OUTFALL      0.12     0.16     6.16     0  03:40        0.16
  T5                   STORAGE      3.31     5.00    32.00     0  04:52        5.00
  T4                   STORAGE      2.06     3.10    30.10     0  05:16        3.10
  T6                   STORAGE      3.38     5.00    36.00     0  03:30        5.00
  T3                   STORAGE      1.79     2.80    24.80     0  07:42        2.80
  T2                   STORAGE      1.80     2.62    23.62     0  05:03        2.62
  T1                   STORAGE      2.00     3.56    13.56     0  03:40        3.56
  
  
  *******************
  Node Inflow Summary
  *******************
  
  -------------------------------------------------------------------------------------------------
                                  Maximum  Maximum                  Lateral       Total        Flow
                                  Lateral    Total  Time of Max      Inflow      Inflow     Balance
                                   Inflow   Inflow   Occurrence      Volume      Volume       Error
  Node                 Type           CMS      CMS  days hr:min    10^6 ltr    10^6 ltr     Percent
  -------------------------------------------------------------------------------------------------
  J1                   JUNCTION     0.151    0.151     0  03:01        1.22        1.22       0.075
  J3                   JUNCTION     0.000    0.114     0  06:43           0        2.04       1.368
  CSO7                 JUNCTION     0.047    0.047     0  03:01       0.486       0.486       0.093
  J5                   JUNCTION     0.056    0.100     0  03:01       0.411       0.893       0.202
  CSO9                 JUNCTION     0.061    0.061     0  03:01       0.483       0.483       0.091
  J8                   JUNCTION     0.267    0.325     0  03:01        2.26        2.74       0.225
  CSO8                 JUNCTION     0.233    0.233     0  03:01        1.46        1.46       0.037
  J10                  JUNCTION     0.169    0.396     0  03:01        1.15         2.6       0.203
  J13                  JUNCTION     0.206    0.206     0  03:01        1.42        1.42      -0.179
  J15                  JUNCTION     0.000    0.500     0  03:01           0        5.02       1.245
  J16                  JUNCTION     0.296    0.296     0  03:01        1.94        1.94       0.009
  CSO10                JUNCTION     0.100    0.100     0  03:01       0.631       0.631       0.067
  J12                  JUNCTION     0.000    0.456     0  03:01           0        3.95       0.598
  J4                   JUNCTION     0.000    0.047     0  03:01           0       0.485       0.776
  J6                   JUNCTION     0.000    0.022     0  05:16           0       0.399       0.781
  J2                   JUNCTION     0.000    0.000     0  00:00           0           0       0.000 ltr
  J19                  JUNCTION     0.000    0.228     0  03:40           0        4.28       0.217
  J9                   JUNCTION     0.000    0.075     0  03:30           0        1.37       1.485
  J14                  JUNCTION     0.000    0.092     0  07:42           0        1.65       0.339
  J17                  JUNCTION     0.000    0.024     0  05:03           0        0.44       1.386
  J7                   JUNCTION     0.000    0.061     0  03:01           0       0.483       0.666
  J11                  JUNCTION     0.000    0.233     0  03:01           0        1.46       0.404
  J18                  JUNCTION     0.000    0.099     0  03:01           0        0.63       0.132
  Out_to_WWTP          OUTFALL      0.000    0.228     0  03:40           0        4.27       0.000
  T5                   STORAGE      0.000    0.149     0  03:01           0        1.22      69.245
  T4                   STORAGE      0.000    0.099     0  03:01           0       0.891      30.911
  T6                   STORAGE      0.000    0.320     0  03:01           0        2.74      34.975
  T3                   STORAGE      0.000    0.448     0  03:03           0        3.92      26.328
  T2                   STORAGE      0.000    0.204     0  03:01           0        1.43      53.006
  T1                   STORAGE      0.000    0.486     0  03:02           0        4.96       8.313
  
  
  **********************
  Node Surcharge Summary
  **********************
  
  No nodes were surcharged.
  
  
  *********************
  Node Flooding Summary
  *********************
  
  Flooding refers to all water that overflows a node, whether it ponds or not.
  --------------------------------------------------------------------------
                                                             Total   Maximum
                                 Maximum   Time of Max       Flood    Ponded
                        Hours       Rate    Occurrence      Volume     Depth
  Node                 Flooded       CMS   days hr:min    10^6 ltr    Meters
  --------------------------------------------------------------------------
  T5                      2.95     0.029      0  04:52       0.219     0.000
  T6                      1.48     0.094      0  03:30       0.159     0.000
  
  
  **********************
  Storage Volume Summary
  **********************
  
  --------------------------------------------------------------------------------------------------
                         Average     Avg  Evap Exfil       Maximum     Max    Time of Max    Maximum
                          Volume    Pcnt  Pcnt  Pcnt        Volume    Pcnt     Occurrence    Outflow
  Storage Unit           1000 m3    Full  Loss  Loss       1000 m3    Full    days hr:min        CMS
  --------------------------------------------------------------------------------------------------
  T5                       0.331      66     0     0         0.500     100       0  04:52      0.000
  T4                       0.206      41     0     0         0.310      62       0  05:16      0.022
  T6                       0.405      68     0     0         0.600     100       0  03:30      0.075
  T3                       0.931      36     0     0         1.458      56       0  07:42      0.092
  T2                       0.360      36     0     0         0.525      52       0  05:03      0.024
  T1                       0.281      40     0     0         0.499      71       0  03:40      0.228
  
  
  ***********************
  Outfall Loading Summary
  ***********************
  
  -----------------------------------------------------------
                         Flow       Avg       Max       Total
                         Freq      Flow      Flow      Volume
  Outfall Node           Pcnt       CMS       CMS    10^6 ltr
  -----------------------------------------------------------
  Out_to_WWTP           99.01     0.153     0.228       4.267
  -----------------------------------------------------------
  System                99.01     0.153     0.228       4.267
  
  
  ********************
  Link Flow Summary
  ********************
  
  -----------------------------------------------------------------------------
                                 Maximum  Time of Max   Maximum    Max/    Max/
                                  |Flow|   Occurrence   |Veloc|    Full    Full
  Link                 Type          CMS  days hr:min     m/sec    Flow   Depth
  -----------------------------------------------------------------------------
  C1                   CONDUIT     0.000     0  00:00      0.00    0.00    0.05
  C6                   CONDUIT     0.045     0  03:03      1.22    0.71    0.52
  C2                   CONDUIT     0.022     0  05:18      0.99    0.03    0.14
  C9                   CONDUIT     0.059     0  03:02      1.01    0.20    0.34
  C16                  CONDUIT     0.229     0  03:02      1.40    0.02    0.10
  C3                   CONDUIT     0.092     0  07:43      1.74    0.04    0.12
  C19                  CONDUIT     0.024     0  05:06      0.57    0.01    0.15
  C11                  CONDUIT     0.114     0  06:46      1.44    0.01    0.08
  C20                  CONDUIT     0.293     0  03:01      2.08    0.01    0.09
  C22                  CONDUIT     0.098     0  03:02      1.24    0.04    0.22
  C12                  CONDUIT     0.075     0  04:40      1.09    0.01    0.08
  C17                  CONDUIT     0.390     0  03:01      2.26    0.02    0.10
  C10                  CONDUIT     0.320     0  03:01      1.65    0.03    0.56
  C13                  CONDUIT     0.448     0  03:03      1.31    0.03    0.55
  C18                  CONDUIT     0.204     0  03:01      1.72    0.01    0.53
  C23                  CONDUIT     0.486     0  03:02      1.22    0.05    0.58
  C4                   CONDUIT     0.149     0  03:01      1.97    0.04    0.57
  C7                   CONDUIT     0.099     0  03:01      1.41    0.02    0.55
  C14                  CONDUIT     0.228     0  03:40      1.98    0.01    0.08
  C5                   CONDUIT     0.047     0  03:01      1.22    0.80    0.73
  C8                   CONDUIT     0.061     0  03:01      1.27    0.77    0.58
  C15                  CONDUIT     0.233     0  03:01      2.50    0.74    0.56
  C21                  CONDUIT     0.099     0  03:01      1.61    0.57    0.42
  V4                   ORIFICE     0.022     0  05:16                      0.35
  V5                   ORIFICE     0.000     0  00:00                      0.00
  V1                   ORIFICE     0.228     0  03:40                      1.00
  V6                   ORIFICE     0.075     0  03:30                      0.43
  V3                   ORIFICE     0.092     0  07:42                      0.65
  V2                   ORIFICE     0.024     0  05:03                      0.24
  
  
  ***************************
  Flow Classification Summary
  ***************************
  
  -------------------------------------------------------------------------------------
                      Adjusted    ---------- Fraction of Time in Flow Class ---------- 
                       /Actual         Up    Down  Sub   Sup   Up    Down  Norm  Inlet 
  Conduit               Length    Dry  Dry   Dry   Crit  Crit  Crit  Crit  Ltd   Ctrl  
  -------------------------------------------------------------------------------------
  C1                      1.00   0.32  0.68  0.00  0.00  0.00  0.00  0.00  0.00  0.00
  C6                      1.00   0.00  0.00  0.00  0.01  0.99  0.00  0.00  0.00  0.00
  C2                      1.00   0.32  0.00  0.00  0.00  0.68  0.00  0.00  0.66  0.00
  C9                      1.00   0.00  0.00  0.00  1.00  0.00  0.00  0.00  1.00  0.00
  C16                     1.00   0.00  0.00  0.00  0.60  0.40  0.00  0.00  0.50  0.00
  C3                      1.00   0.32  0.00  0.00  0.00  0.68  0.00  0.00  0.00  0.00
  C19                     1.00   0.00  0.32  0.00  0.68  0.00  0.00  0.00  0.68  0.00
  C11                     1.00   0.00  0.32  0.00  0.11  0.57  0.00  0.00  0.68  0.00
  C20                     1.00   0.00  0.00  0.00  0.53  0.47  0.00  0.00  0.98  0.00
  C22                     1.00   0.00  0.00  0.00  0.72  0.28  0.00  0.00  1.00  0.00
  C12                     1.00   0.00  0.32  0.00  0.16  0.52  0.00  0.00  0.68  0.00
  C17                     1.00   0.00  0.00  0.00  0.40  0.60  0.00  0.00  0.91  0.00
  C10                     1.00   0.00  0.00  0.00  0.97  0.03  0.00  0.00  0.98  0.00
  C13                     1.00   0.00  0.00  0.00  0.88  0.12  0.00  0.00  0.91  0.00
  C18                     1.00   0.00  0.00  0.00  0.95  0.05  0.00  0.00  0.97  0.00
  C23                     1.00   0.00  0.00  0.00  0.80  0.20  0.00  0.00  0.94  0.00
  C4                      1.00   0.00  0.00  0.00  0.97  0.03  0.00  0.00  0.98  0.00
  C7                      1.00   0.00  0.00  0.00  0.95  0.05  0.00  0.00  0.97  0.00
  C14                     1.00   0.00  0.00  0.00  0.00  0.99  0.00  0.00  0.44  0.00
  C5                      1.00   0.00  0.00  0.00  0.89  0.11  0.00  0.00  0.98  0.00
  C8                      1.00   0.00  0.00  0.00  0.00  1.00  0.00  0.00  0.00  0.00
  C15                     1.00   0.00  0.00  0.00  0.00  1.00  0.00  0.00  0.00  0.00
  C21                     1.00   0.00  0.00  0.00  0.00  1.00  0.00  0.00  0.00  0.00
  
  
  *************************
  Conduit Surcharge Summary
  *************************
  
  ----------------------------------------------------------------------------
                                                           Hours        Hours 
                         --------- Hours Full --------   Above Full   Capacity
  Conduit                Both Ends  Upstream  Dnstream   Normal Flow   Limited
  ----------------------------------------------------------------------------
  C10                         0.01      0.01      5.72      0.01         0.01
  C13                         0.01      0.01      4.65      0.01         0.01
  C18                         0.01      0.01      4.84      0.01         0.01
  C23                         0.01      0.01      5.24      0.01         0.01
  C4                          0.01      0.01      5.93      0.01         0.01
  C7                          0.01      0.01      5.60      0.01         0.01
  

  Analysis begun on:  Fri Sep  3 20:02:39 2021
  Analysis ended on:  Fri Sep  3 20:02:39 2021
  Total elapsed time: < 1 sec