
  EPA STORM WATER MANAGEMENT MODEL - VERSION 5.1 (Build 5.3.0.dev0)
  --------------------------------------------------------------

  
  *********************************************************
  NOTE: The summary statistics displayed in this report are
  based on results found at every computational time step,  
  not just on results from each reporting time step.
  *********************************************************
  
  ****************
  Analysis Options
  ****************
  Flow Units ............... CMS
  Process Models:
    Rainfall/Runoff ........ YES
    RDII ................... NO
    Snowmelt ............... NO
    Groundwater ............ NO
    Flow Routing ........... YES
    Ponding Allowed ........ YES
    Water Quality .......... NO
  Infiltration Method ...... HORTON
  Flow Routing Method ...... DYNWAVE
  Surcharge Method ......... EXTRAN
  Starting Date ............ 08/28/2015 08:00:00
  Ending Date .............. 08/28/2015 15:50:00
  Antecedent Dry Days ...... 0.0
  Report Time Step ......... 00:01:00
  Wet Time Step ............ 00:01:00
  Dry Time Step ............ 00:01:00
  Routing Time Step ........ 5.00 sec
  Variable Time Step ....... YES
  Maximum Trials ........... 8
  Number of Threads ........ 1
  Head Tolerance ........... 0.001500 m
  
  
  **************************        Volume         Depth
  Runoff Quantity Continuity     hectare-m            mm
  **************************     ---------       -------
  Total Precipitation ......         1.704         9.454
  Evaporation Loss .........         0.000         0.000
  Infiltration Loss ........         0.000         0.000
  Surface Runoff ...........         1.680         9.325
  Final Storage ............         0.023         0.129
  Continuity Error (%) .....        -0.006
  
  
  **************************        Volume        Volume
  Flow Routing Continuity        hectare-m      10^6 ltr
  **************************     ---------     ---------
  Dry Weather Inflow .......         0.396         3.956
  Wet Weather Inflow .......         1.680        16.805
  Groundwater Inflow .......         0.000         0.000
  RDII Inflow ..............         0.000         0.000
  External Inflow ..........         0.000         0.000
  External Outflow .........         0.555         5.546
  Flooding Loss ............         0.522         5.222
  Evaporation Loss .........         0.000         0.000
  Exfiltration Loss ........         0.000         0.000
  Initial Stored Volume ....         0.000         0.000
  Final Stored Volume ......         0.751         7.507
  Continuity Error (%) .....        11.972
  
  
  *************************
  Highest Continuity Errors
  *************************
  Node T2 (33.51%)
  Node T5 (24.42%)
  Node T4 (22.32%)
  Node T3 (20.39%)
  Node T6 (14.99%)
  
  
  ***************************
  Time-Step Critical Elements
  ***************************
  None
  
  
  ********************************
  Highest Flow Instability Indexes
  ********************************
  Link C13 (2)
  
  
  *************************
  Routing Time Step Summary
  *************************
  Minimum Time Step           :     0.70 sec
  Average Time Step           :     5.00 sec
  Maximum Time Step           :     5.00 sec
  Percent in Steady State     :     0.00
  Average Iterations per Step :     2.19
  Percent Not Converging      :     0.58
  
  
  ***************************
  Subcatchment Runoff Summary
  ***************************
  
  ------------------------------------------------------------------------------------------------------------------------------
                            Total      Total      Total      Total     Imperv       Perv      Total       Total     Peak  Runoff
                           Precip      Runon       Evap      Infil     Runoff     Runoff     Runoff      Runoff   Runoff   Coeff
  Subcatchment                 mm         mm         mm         mm         mm         mm         mm    10^6 ltr      CMS
  ------------------------------------------------------------------------------------------------------------------------------
  SC01                       9.45       0.00       0.00       0.00       9.37       0.00       9.37        3.09     0.75   0.991
  SC02                       9.45       0.00       0.00       0.00       9.36       0.00       9.36        2.13     0.51   0.990
  SC03                       9.45       0.00       0.00       0.00       9.39       0.00       9.39        1.69     0.43   0.993
  SC04                       9.45       0.00       0.00       0.00       9.26       0.00       9.26        0.64     0.13   0.980
  SC05                       9.45       0.00       0.00       0.00       9.36       0.00       9.36        1.46     0.35   0.990
  SC06                       9.45       0.00       0.00       0.00       9.21       0.00       9.21        3.00     0.58   0.974
  SC07                       9.45       0.00       0.00       0.00       9.26       0.00       9.26        0.44     0.09   0.980
  SC08                       9.45       0.00       0.00       0.00       9.34       0.00       9.34        2.61     0.60   0.988
  SC09                       9.45       0.00       0.00       0.00       9.31       0.00       9.31        0.64     0.14   0.985
  SC010                      9.45       0.00       0.00       0.00       9.34       0.00       9.34        1.10     0.25   0.988
  
  
  ******************
  Node Depth Summary
  ******************
  
  ---------------------------------------------------------------------------------
                                 Average  Maximum  Maximum  Time of Max    Reported
                                   Depth    Depth      HGL   Occurrence   Max Depth
  Node                 Type       Meters   Meters   Meters  days hr:min      Meters
  ---------------------------------------------------------------------------------
  J1                   JUNCTION     0.08     0.20    34.20     0  02:19        0.20
  J3                   JUNCTION     0.09     0.12    18.12     0  04:44        0.12
  CSO7                 JUNCTION     0.22     1.20    35.20     0  02:09        1.20
  J5                   JUNCTION     0.07     0.15    32.15     0  02:24        0.15
  CSO9                 JUNCTION     0.27     2.00    42.00     0  02:12        2.00
  J8                   JUNCTION     0.12     0.28    36.28     0  02:25        0.28
  CSO8                 JUNCTION     0.29     2.00    34.00     0  02:10        2.00
  J10                  JUNCTION     0.10     0.29    29.29     0  02:18        0.29
  J13                  JUNCTION     0.07     0.19    29.19     0  02:19        0.19
  J15                  JUNCTION     0.17     0.35    15.35     0  02:23        0.35
  J16                  JUNCTION     0.07     0.21    30.21     0  02:19        0.21
  CSO10                JUNCTION     0.18     1.00    31.00     0  02:10        1.00
  J12                  JUNCTION     0.43     0.67    26.67     0  04:37        0.67
  J4                   JUNCTION     0.19     1.25    34.25     0  02:09        0.76
  J6                   JUNCTION     0.05     0.07    25.07     0  03:58        0.07
  J2                   JUNCTION     0.00     0.00    25.00     0  00:00        0.00
  J19                  JUNCTION     0.14     0.17     8.17     0  02:27        0.17
  J9                   JUNCTION     0.08     0.11    29.11     0  03:58        0.11
  J14                  JUNCTION     0.11     0.15    20.15     0  04:42        0.15
  J17                  JUNCTION     0.05     0.08    20.08     0  04:00        0.08
  J7                   JUNCTION     0.09     0.23    39.23     0  02:35        0.23
  J11                  JUNCTION     0.11     0.30    31.30     0  02:37        0.30
  J18                  JUNCTION     0.06     0.16    29.16     0  02:37        0.16
  Out_to_WWTP          OUTFALL      0.14     0.17     6.17     0  04:00        0.17
  T5                   STORAGE      3.75     5.00    32.00     0  02:30        5.00
  T4                   STORAGE      3.44     5.00    32.00     0  03:11        5.00
  T6                   STORAGE      3.68     5.00    36.00     0  02:24        5.00
  T3                   STORAGE      3.23     4.67    26.67     0  04:41        4.67
  T2                   STORAGE      3.50     5.00    26.00     0  03:05        5.00
  T1                   STORAGE      3.29     5.00    15.00     0  02:26        5.00
  
  
  *******************
  Node Inflow Summary
  *******************
  
  -------------------------------------------------------------------------------------------------
                                  Maximum  Maximum                  Lateral       Total        Flow
                                  Lateral    Total  Time of Max      Inflow      Inflow     Balance
                                   Inflow   Inflow   Occurrence      Volume      Volume       Error
  Node                 Type           CMS      CMS  days hr:min    10^6 ltr    10^6 ltr     Percent
  -------------------------------------------------------------------------------------------------
  J1                   JUNCTION     0.371    0.371     0  02:19        2.02        2.02       0.037
  J3                   JUNCTION     0.000    0.147     0  04:42           0         2.9       1.165
  CSO7                 JUNCTION     0.101    0.101     0  02:23        0.73        0.73       0.064
  J5                   JUNCTION     0.136    0.207     0  02:23       0.767        1.44       0.119
  CSO9                 JUNCTION     0.148    0.148     0  02:21       0.839       0.839       0.046
  J8                   JUNCTION     0.617    0.744     0  02:25        3.94        4.76       0.125
  CSO8                 JUNCTION     0.609    0.609     0  02:20        2.91        2.91       0.015
  J10                  JUNCTION     0.448    0.936     0  02:17        2.08        4.86       0.023
  J13                  JUNCTION     0.530    0.530     0  02:19         2.6         2.6      -0.152
  J15                  JUNCTION     0.000    1.085     0  02:19           0        8.35       0.866
  J16                  JUNCTION     0.774    0.774     0  02:18        3.65        3.65      -0.025
  CSO10                JUNCTION     0.258    0.258     0  02:20        1.24        1.24       0.017
  J12                  JUNCTION     0.000    0.995     0  02:19           0         6.6       5.821
  J4                   JUNCTION     0.000    0.074     0  02:09           0       0.679       0.493
  J6                   JUNCTION     0.000    0.028     0  03:11           0       0.552       0.676
  J2                   JUNCTION     0.000    0.000     0  00:00           0           0       0.000 ltr
  J19                  JUNCTION     0.000    0.271     0  02:26           0        5.56       0.199
  J9                   JUNCTION     0.000    0.075     0  02:24           0        1.52       1.452
  J14                  JUNCTION     0.000    0.119     0  04:41           0        2.36       0.285
  J17                  JUNCTION     0.000    0.033     0  03:05           0       0.659       1.221
  J7                   JUNCTION     0.000    0.127     0  02:35           0        0.82       0.381
  J11                  JUNCTION     0.000    0.486     0  02:36           0        2.79       0.225
  J18                  JUNCTION     0.000    0.202     0  02:37           0        1.18       0.045
  Out_to_WWTP          OUTFALL      0.000    0.271     0  02:28           0        5.55       0.000
  T5                   STORAGE      0.000    0.371     0  02:19           0        2.02      32.318
  T4                   STORAGE      0.000    0.207     0  02:24           0        1.44      28.741
  T6                   STORAGE      0.000    0.744     0  02:26           0        4.75      17.630
  T3                   STORAGE      0.000    0.986     0  02:22           0        6.24      25.619
  T2                   STORAGE      0.000    0.529     0  02:19           0         2.6      50.399
  T1                   STORAGE      0.000    1.069     0  02:23           0        8.28       7.519
  
  
  **********************
  Node Surcharge Summary
  **********************
  
  Surcharging occurs when water rises above the top of the highest conduit.
  ---------------------------------------------------------------------
                                               Max. Height   Min. Depth
                                   Hours       Above Crown    Below Rim
  Node                 Type      Surcharged         Meters       Meters
  ---------------------------------------------------------------------
  CSO7                 JUNCTION        1.03          0.945        0.000
  CSO9                 JUNCTION        1.05          1.682        0.000
  CSO8                 JUNCTION        1.02          1.547        0.000
  CSO10                JUNCTION        0.68          0.560        0.000
  J4                   JUNCTION        1.00          0.945        0.755
  
  
  *********************
  Node Flooding Summary
  *********************
  
  Flooding refers to all water that overflows a node, whether it ponds or not.
  --------------------------------------------------------------------------
                                                             Total   Maximum
                                 Maximum   Time of Max       Flood    Ponded
                        Hours       Rate    Occurrence      Volume     Depth
  Node                 Flooded       CMS   days hr:min    10^6 ltr    Meters
  --------------------------------------------------------------------------
  CSO7                    0.81     0.030      0  02:23       0.051     0.000
  CSO9                    0.38     0.021      0  02:21       0.019     0.000
  CSO8                    0.43     0.123      0  02:20       0.116     0.000
  CSO10                   0.45     0.056      0  02:20       0.054     0.000
  T5                      5.32     0.320      0  02:30       1.028     0.000
  T4                      1.58     0.092      0  03:11       0.127     0.000
  T6                      2.65     0.668      0  02:26       2.010     0.000
  T2                      1.18     0.172      0  03:05       0.157     0.000
  T1                      1.35     0.787      0  02:26       1.660     0.000
  
  
  **********************
  Storage Volume Summary
  **********************
  
  --------------------------------------------------------------------------------------------------
                         Average     Avg  Evap Exfil       Maximum     Max    Time of Max    Maximum
                          Volume    Pcnt  Pcnt  Pcnt        Volume    Pcnt     Occurrence    Outflow
  Storage Unit           1000 m3    Full  Loss  Loss       1000 m3    Full    days hr:min        CMS
  --------------------------------------------------------------------------------------------------
  T5                       0.375      75     0     0         0.500     100       0  02:30      0.000
  T4                       0.344      69     0     0         0.500     100       0  03:11      0.028
  T6                       0.442      74     0     0         0.600     100       0  02:24      0.075
  T3                       1.679      65     0     0         2.430      93       0  04:41      0.246
  T2                       0.699      70     0     0         1.000     100       0  03:05      0.033
  T1                       0.461      66     0     0         0.700     100       0  02:26      0.271
  
  
  ***********************
  Outfall Loading Summary
  ***********************
  
  -----------------------------------------------------------
                         Flow       Avg       Max       Total
                         Freq      Flow      Flow      Volume
  Outfall Node           Pcnt       CMS       CMS    10^6 ltr
  -----------------------------------------------------------
  Out_to_WWTP           99.01     0.199     0.271       5.546
  -----------------------------------------------------------
  System                99.01     0.199     0.271       5.546
  
  
  ********************
  Link Flow Summary
  ********************
  
  -----------------------------------------------------------------------------
                                 Maximum  Time of Max   Maximum    Max/    Max/
                                  |Flow|   Occurrence   |Veloc|    Full    Full
  Link                 Type          CMS  days hr:min     m/sec    Flow   Depth
  -----------------------------------------------------------------------------
  C1                   CONDUIT     0.000     0  00:00      0.00    0.00    0.06
  C6                   CONDUIT     0.071     0  02:23      1.29    1.13    0.76
  C2                   CONDUIT     0.028     0  03:58      0.99    0.03    0.16
  C9                   CONDUIT     0.127     0  02:35      1.29    0.43    0.51
  C16                  CONDUIT     0.488     0  02:16      1.78    0.05    0.15
  C3                   CONDUIT     0.119     0  04:42      1.86    0.05    0.14
  C19                  CONDUIT     0.033     0  04:00      0.65    0.01    0.21
  C11                  CONDUIT     0.147     0  04:44      1.54    0.01    0.11
  C20                  CONDUIT     0.774     0  02:19      2.96    0.02    0.14
  C22                  CONDUIT     0.202     0  02:37      1.66    0.09    0.32
  C12                  CONDUIT     0.075     0  03:58      0.50    0.01    0.19
  C17                  CONDUIT     0.932     0  02:18      3.07    0.05    0.19
  C10                  CONDUIT     0.744     0  02:26      1.65    0.08    0.59
  C13                  CONDUIT     0.986     0  02:22      1.31    0.06    0.67
  C18                  CONDUIT     0.529     0  02:19      1.72    0.02    0.55
  C23                  CONDUIT     1.069     0  02:23      1.34    0.12    0.62
  C4                   CONDUIT     0.371     0  02:19      1.97    0.09    0.60
  C7                   CONDUIT     0.207     0  02:24      1.41    0.05    0.58
  C14                  CONDUIT     0.271     0  02:28      2.08    0.02    0.09
  C5                   CONDUIT     0.074     0  02:09      1.45    1.27    1.00
  C8                   CONDUIT     0.127     0  02:35      1.76    1.60    0.86
  C15                  CONDUIT     0.486     0  02:36      3.43    1.55    0.83
  C21                  CONDUIT     0.202     0  02:37      1.83    1.16    0.69
  V4                   ORIFICE     0.028     0  03:11                      0.35
  V5                   ORIFICE     0.000     0  00:00                      0.00
  V1                   ORIFICE     0.271     0  02:26                      1.00
  V6                   ORIFICE     0.075     0  02:24                      0.43
  V3                   ORIFICE     0.119     0  04:41                      0.65
  V2                   ORIFICE     0.033     0  03:05                      0.24
  
  
  ***************************
  Flow Classification Summary
  ***************************
  
  -------------------------------------------------------------------------------------
                      Adjusted    ---------- Fraction of Time in Flow Class ---------- 
                       /Actual         Up    Down  Sub   Sup   Up    Down  Norm  Inlet 
  Conduit               Length    Dry  Dry   Dry   Crit  Crit  Crit  Crit  Ltd   Ctrl  
  -------------------------------------------------------------------------------------
  C1                      1.00   0.26  0.74  0.00  0.00  0.00  0.00  0.00  0.00  0.00
  C6                      1.00   0.00  0.00  0.00  0.15  0.85  0.00  0.00  0.00  0.00
  C2                      1.00   0.26  0.00  0.00  0.00  0.74  0.00  0.00  0.73  0.00
  C9                      1.00   0.00  0.00  0.00  1.00  0.00  0.00  0.00  1.00  0.00
  C16                     1.00   0.00  0.00  0.00  0.57  0.43  0.00  0.00  0.46  0.00
  C3                      1.00   0.26  0.00  0.00  0.00  0.74  0.00  0.00  0.00  0.00
  C19                     1.00   0.00  0.26  0.00  0.74  0.00  0.00  0.00  0.74  0.00
  C11                     1.00   0.00  0.26  0.00  0.16  0.58  0.00  0.00  0.74  0.00
  C20                     1.00   0.00  0.00  0.00  0.55  0.45  0.00  0.00  0.98  0.00
  C22                     1.00   0.00  0.00  0.00  0.72  0.28  0.00  0.00  1.00  0.00
  C12                     1.00   0.00  0.26  0.00  0.74  0.00  0.00  0.00  0.74  0.00
  C17                     1.00   0.00  0.00  0.00  0.60  0.40  0.00  0.00  0.91  0.00
  C10                     1.00   0.00  0.00  0.00  0.97  0.03  0.00  0.00  0.98  0.00
  C13                     1.00   0.00  0.00  0.00  0.86  0.14  0.00  0.00  0.29  0.00
  C18                     1.00   0.00  0.00  0.00  0.95  0.05  0.00  0.00  0.97  0.00
  C23                     1.00   0.00  0.00  0.00  0.82  0.18  0.00  0.00  0.94  0.00
  C4                      1.00   0.00  0.00  0.00  0.97  0.03  0.00  0.00  0.98  0.00
  C7                      1.00   0.00  0.00  0.00  0.95  0.05  0.00  0.00  0.97  0.00
  C14                     1.00   0.00  0.00  0.00  0.00  0.99  0.00  0.00  0.22  0.00
  C5                      1.00   0.00  0.00  0.00  0.90  0.10  0.00  0.00  0.85  0.00
  C8                      1.00   0.00  0.00  0.00  0.16  0.84  0.00  0.00  0.00  0.00
  C15                     1.00   0.00  0.00  0.00  0.00  1.00  0.00  0.00  0.00  0.00
  C21                     1.00   0.00  0.00  0.00  0.01  0.99  0.00  0.00  0.00  0.00
  
  
  *************************
  Conduit Surcharge Summary
  *************************
  
  ----------------------------------------------------------------------------
                                                           Hours        Hours 
                         --------- Hours Full --------   Above Full   Capacity
  Conduit                Both Ends  Upstream  Dnstream   Normal Flow   Limited
  ----------------------------------------------------------------------------
  C6                          0.01      1.00      0.01      0.90         0.01
  C10                         0.01      0.01      6.00      0.01         0.01
  C13                         0.01      0.01      5.50      0.01         0.01
  C18                         0.01      0.01      5.62      0.01         0.01
  C23                         0.01      0.01      5.88      0.01         0.01
  C4                          0.01      0.01      6.17      0.01         0.01
  C7                          0.01      0.01      5.92      0.01         0.01
  C5                          1.02      1.03      1.12      1.07         0.99
  C8                          0.01      1.05      0.01      1.06         0.01
  C15                         0.01      1.02      0.01      1.09         0.01
  C21                         0.01      0.68      0.01      0.64         0.01
  

  Analysis begun on:  Fri Sep  3 20:03:57 2021
  Analysis ended on:  Fri Sep  3 20:03:57 2021
  Total elapsed time: < 1 sec