
  EPA STORM WATER MANAGEMENT MODEL - VERSION 5.1 (Build 5.1.013)
  --------------------------------------------------------------

  
  *********************************************************
  NOTE: The summary statistics displayed in this report are
  based on results found at every computational time step,  
  not just on results from each reporting time step.
  *********************************************************
  
  ****************
  Analysis Options
  ****************
  Flow Units ............... CMS
  Process Models:
    Rainfall/Runoff ........ YES
    RDII ................... NO
    Snowmelt ............... NO
    Groundwater ............ NO
    Flow Routing ........... YES
    Ponding Allowed ........ YES
    Water Quality .......... NO
  Infiltration Method ...... HORTON
  Flow Routing Method ...... DYNWAVE
  Surcharge Method ......... EXTRAN
  Starting Date ............ 08/28/2015 08:00:00
  Ending Date .............. 08/28/2015 15:50:00
  Antecedent Dry Days ...... 0.0
  Report Time Step ......... 00:01:00
  Wet Time Step ............ 00:01:00
  Dry Time Step ............ 00:01:00
  Routing Time Step ........ 5.00 sec
  Variable Time Step ....... YES
  Maximum Trials ........... 8
  Number of Threads ........ 1
  Head Tolerance ........... 0.001500 m
  
  
  **************************        Volume         Depth
  Runoff Quantity Continuity     hectare-m            mm
  **************************     ---------       -------
  Total Precipitation ......         2.192        12.164
  Evaporation Loss .........         0.000         0.000
  Infiltration Loss ........         0.000         0.000
  Surface Runoff ...........         2.168        12.031
  Final Storage ............         0.024         0.133
  Continuity Error (%) .....        -0.007
  
  
  **************************        Volume        Volume
  Flow Routing Continuity        hectare-m      10^6 ltr
  **************************     ---------     ---------
  Dry Weather Inflow .......         0.396         3.955
  Wet Weather Inflow .......         2.168        21.680
  Groundwater Inflow .......         0.000         0.000
  RDII Inflow ..............         0.000         0.000
  External Inflow ..........         0.000         0.000
  External Outflow .........         0.546         5.457
  Flooding Loss ............         1.129        11.293
  Evaporation Loss .........         0.000         0.000
  Exfiltration Loss ........         0.000         0.000
  Initial Stored Volume ....         0.000         0.000
  Final Stored Volume ......         0.718         7.181
  Continuity Error (%) .....         6.654
  
  
  *************************
  Highest Continuity Errors
  *************************
  Node T5 (16.42%)
  Node T3 (15.31%)
  Node T2 (13.62%)
  Node T4 (11.98%)
  Node J12 (6.87%)
  
  
  ***************************
  Time-Step Critical Elements
  ***************************
  None
  
  
  ********************************
  Highest Flow Instability Indexes
  ********************************
  All links are stable.
  
  
  *************************
  Routing Time Step Summary
  *************************
  Minimum Time Step           :     3.50 sec
  Average Time Step           :     5.00 sec
  Maximum Time Step           :     5.00 sec
  Percent in Steady State     :     0.00
  Average Iterations per Step :     2.16
  Percent Not Converging      :     0.71
  
  
  ***************************
  Subcatchment Runoff Summary
  ***************************
  
  ------------------------------------------------------------------------------------------------------------------------------
                            Total      Total      Total      Total     Imperv       Perv      Total       Total     Peak  Runoff
                           Precip      Runon       Evap      Infil     Runoff     Runoff     Runoff      Runoff   Runoff   Coeff
  Subcatchment                 mm         mm         mm         mm         mm         mm         mm    10^6 ltr      CMS
  ------------------------------------------------------------------------------------------------------------------------------
  SC01                      12.16       0.00       0.00       0.00      12.08       0.00      12.08        3.99     0.81   0.993
  SC02                      12.16       0.00       0.00       0.00      12.07       0.00      12.07        2.75     0.56   0.992
  SC03                      12.16       0.00       0.00       0.00      12.10       0.00      12.10        2.18     0.45   0.994
  SC04                      12.16       0.00       0.00       0.00      11.97       0.00      11.97        0.83     0.16   0.984
  SC05                      12.16       0.00       0.00       0.00      12.07       0.00      12.07        1.88     0.38   0.992
  SC06                      12.16       0.00       0.00       0.00      11.91       0.00      11.91        3.88     0.73   0.979
  SC07                      12.16       0.00       0.00       0.00      11.97       0.00      11.97        0.57     0.11   0.984
  SC08                      12.16       0.00       0.00       0.00      12.05       0.00      12.05        3.37     0.67   0.990
  SC09                      12.16       0.00       0.00       0.00      12.02       0.00      12.02        0.83     0.16   0.988
  SC010                     12.16       0.00       0.00       0.00      12.05       0.00      12.05        1.42     0.28   0.991
  
  
  ******************
  Node Depth Summary
  ******************
  
  ---------------------------------------------------------------------------------
                                 Average  Maximum  Maximum  Time of Max    Reported
                                   Depth    Depth      HGL   Occurrence   Max Depth
  Node                 Type       Meters   Meters   Meters  days hr:min      Meters
  ---------------------------------------------------------------------------------
  J1                   JUNCTION     0.09     0.21    34.21     0  03:01        0.21
  J3                   JUNCTION     0.13     0.17    18.17     0  03:30        0.17
  CSO7                 JUNCTION     0.28     1.20    35.20     0  01:59        1.20
  J5                   JUNCTION     0.07     0.16    32.16     0  03:01        0.16
  CSO9                 JUNCTION     0.36     2.00    42.00     0  02:28        2.00
  J8                   JUNCTION     0.13     0.31    36.31     0  03:01        0.31
  CSO8                 JUNCTION     0.39     2.00    34.00     0  02:24        2.00
  J10                  JUNCTION     0.11     0.29    29.29     0  03:01        0.29
  J13                  JUNCTION     0.08     0.20    29.20     0  03:01        0.20
  J15                  JUNCTION     0.22     0.40    15.40     0  03:01        0.40
  J16                  JUNCTION     0.08     0.22    30.22     0  03:01        0.22
  CSO10                JUNCTION     0.22     1.00    31.00     0  02:22        1.00
  J12                  JUNCTION     0.68     1.07    27.07     0  03:08        1.06
  J4                   JUNCTION     0.22     1.17    34.17     0  01:59        0.76
  J6                   JUNCTION     0.08     0.12    25.12     0  03:35        0.12
  J2                   JUNCTION     0.07     0.08    25.08     0  02:33        0.08
  J19                  JUNCTION     0.13     0.17     8.17     0  03:01        0.17
  J9                   JUNCTION     0.13     0.16    29.16     0  03:41        0.16
  J14                  JUNCTION     0.14     0.19    20.19     0  06:09        0.19
  J17                  JUNCTION     0.10     0.15    20.15     0  03:21        0.15
  J7                   JUNCTION     0.10     0.23    39.23     0  03:05        0.23
  J11                  JUNCTION     0.12     0.30    31.30     0  02:27        0.30
  J18                  JUNCTION     0.07     0.16    29.16     0  02:57        0.16
  Out_to_WWTP          OUTFALL      0.13     0.17     6.17     0  02:05        0.17
  T5                   STORAGE      3.60     5.00    32.00     0  02:32        5.00
  T4                   STORAGE      2.86     5.00    32.00     0  03:14        5.00
  T6                   STORAGE      2.94     5.00    36.00     0  02:27        5.00
  T3                   STORAGE      3.57     5.00    27.00     0  03:03        5.00
  T2                   STORAGE      2.81     5.00    26.00     0  03:06        5.00
  T1                   STORAGE      3.94     5.00    15.00     0  02:05        5.00
  
  
  *******************
  Node Inflow Summary
  *******************
  
  -------------------------------------------------------------------------------------------------
                                  Maximum  Maximum                  Lateral       Total        Flow
                                  Lateral    Total  Time of Max      Inflow      Inflow     Balance
                                   Inflow   Inflow   Occurrence      Volume      Volume       Error
  Node                 Type           CMS      CMS  days hr:min    10^6 ltr    10^6 ltr     Percent
  -------------------------------------------------------------------------------------------------
  J1                   JUNCTION     0.403    0.403     0  03:01        2.44        2.44       0.004
  J3                   JUNCTION     0.000    0.309     0  03:23           0        5.59       0.926
  CSO7                 JUNCTION     0.121    0.121     0  03:01       0.859       0.859       0.052
  J5                   JUNCTION     0.163    0.235     0  03:01       0.953        1.72       0.056
  CSO9                 JUNCTION     0.170    0.170     0  03:01        1.03        1.03       0.050
  J8                   JUNCTION     0.765    0.893     0  03:01        4.82         5.8       0.063
  CSO8                 JUNCTION     0.680    0.680     0  03:01        3.66        3.66       0.017
  J10                  JUNCTION     0.466    0.953     0  03:01        2.56        6.01      -0.053
  J13                  JUNCTION     0.574    0.574     0  03:01        3.21        3.21      -0.163
  J15                  JUNCTION     0.000    1.462     0  03:01           0        13.8       0.921
  J16                  JUNCTION     0.832    0.832     0  03:01        4.54        4.54      -0.037
  CSO10                JUNCTION     0.287    0.287     0  03:01        1.55        1.55       0.025
  J12                  JUNCTION     0.000    1.121     0  03:01           0         9.4       7.379
  J4                   JUNCTION     0.000    0.072     0  03:01           0       0.765       0.443
  J6                   JUNCTION     0.000    0.080     0  03:14           0        1.19       0.551
  J2                   JUNCTION     0.000    0.039     0  02:32           0       0.862       0.613
  J19                  JUNCTION     0.000    0.271     0  02:05           0        5.47       0.232
  J9                   JUNCTION     0.000    0.175     0  02:27           0        3.41       0.549
  J14                  JUNCTION     0.000    0.190     0  03:03           0        3.56       0.265
  J17                  JUNCTION     0.000    0.140     0  03:06           0        2.28       0.558
  J7                   JUNCTION     0.000    0.127     0  03:05           0       0.984       0.316
  J11                  JUNCTION     0.000    0.486     0  02:28           0        3.45       0.188
  J18                  JUNCTION     0.000    0.202     0  02:57           0        1.46       0.024
  Out_to_WWTP          OUTFALL      0.000    0.271     0  03:01           0        5.46       0.000
  T5                   STORAGE      0.000    0.401     0  03:01           0        2.44      19.648
  T4                   STORAGE      0.000    0.233     0  03:01           0        1.71      13.608
  T6                   STORAGE      0.000    0.885     0  03:01           0        5.79       5.028
  T3                   STORAGE      0.000    1.254     0  03:11           0        8.76      18.077
  T2                   STORAGE      0.000    0.571     0  03:01           0        3.22      15.765
  T1                   STORAGE      0.000    1.439     0  03:01           0        13.7       6.445
  
  
  **********************
  Node Surcharge Summary
  **********************
  
  Surcharging occurs when water rises above the top of the highest conduit.
  ---------------------------------------------------------------------
                                               Max. Height   Min. Depth
                                   Hours       Above Crown    Below Rim
  Node                 Type      Surcharged         Meters       Meters
  ---------------------------------------------------------------------
  CSO7                 JUNCTION        1.41          0.945        0.000
  CSO9                 JUNCTION        1.48          1.682        0.000
  CSO8                 JUNCTION        1.46          1.547        0.000
  CSO10                JUNCTION        1.02          0.560        0.000
  J4                   JUNCTION        1.36          0.866        0.834
  
  
  *********************
  Node Flooding Summary
  *********************
  
  Flooding refers to all water that overflows a node, whether it ponds or not.
  --------------------------------------------------------------------------
                                                             Total   Maximum
                                 Maximum   Time of Max       Flood    Ponded
                        Hours       Rate    Occurrence      Volume     Depth
  Node                 Flooded       CMS   days hr:min    10^6 ltr    Meters
  --------------------------------------------------------------------------
  CSO7                    1.21     0.049      0  03:01       0.093     0.000
  CSO9                    0.61     0.043      0  03:01       0.041     0.000
  CSO8                    0.69     0.194      0  03:01       0.210     0.000
  CSO10                   0.72     0.085      0  03:01       0.096     0.000
  T5                      1.52     0.362      0  03:01       0.779     0.000
  T4                      0.36     0.073      0  03:14       0.043     0.000
  T6                      1.44     0.710      0  03:01       1.929     0.000
  T3                      1.78     1.064      0  03:11       1.349     0.000
  T2                      0.24     0.222      0  03:06       0.074     0.000
  T1                      5.75     1.316      0  02:50       6.679     0.000
  
  
  **********************
  Storage Volume Summary
  **********************
  
  --------------------------------------------------------------------------------------------------
                         Average     Avg  Evap Exfil       Maximum     Max    Time of Max    Maximum
                          Volume    Pcnt  Pcnt  Pcnt        Volume    Pcnt     Occurrence    Outflow
  Storage Unit           1000 m3    Full  Loss  Loss       1000 m3    Full    days hr:min        CMS
  --------------------------------------------------------------------------------------------------
  T5                       0.360      72     0     0         0.500     100       0  02:32      0.039
  T4                       0.286      57     0     0         0.500     100       0  03:14      0.080
  T6                       0.353      59     0     0         0.600     100       0  02:27      0.175
  T3                       1.856      71     0     0         2.600     100       0  03:03      0.190
  T2                       0.561      56     0     0         1.000     100       0  03:06      0.140
  T1                       0.552      79     0     0         0.700     100       0  02:05      0.271
  
  
  ***********************
  Outfall Loading Summary
  ***********************
  
  -----------------------------------------------------------
                         Flow       Avg       Max       Total
                         Freq      Flow      Flow      Volume
  Outfall Node           Pcnt       CMS       CMS    10^6 ltr
  -----------------------------------------------------------
  Out_to_WWTP           82.72     0.234     0.271       5.457
  -----------------------------------------------------------
  System                82.72     0.234     0.271       5.457
  
  
  ********************
  Link Flow Summary
  ********************
  
  -----------------------------------------------------------------------------
                                 Maximum  Time of Max   Maximum    Max/    Max/
                                  |Flow|   Occurrence   |Veloc|    Full    Full
  Link                 Type          CMS  days hr:min     m/sec    Flow   Depth
  -----------------------------------------------------------------------------
  C1                   CONDUIT     0.040     0  02:34      1.46    0.01    0.13
  C6                   CONDUIT     0.072     0  03:01      1.29    1.14    0.77
  C2                   CONDUIT     0.080     0  03:35      1.98    0.09    0.25
  C9                   CONDUIT     0.127     0  03:05      1.28    0.43    0.54
  C16                  CONDUIT     0.487     0  02:31      1.78    0.05    0.15
  C3                   CONDUIT     0.190     0  05:02      2.15    0.07    0.18
  C19                  CONDUIT     0.140     0  03:21      1.55    0.05    0.28
  C11                  CONDUIT     0.309     0  03:30      2.06    0.02    0.14
  C20                  CONDUIT     0.827     0  03:01      2.63    0.03    0.16
  C22                  CONDUIT     0.202     0  02:57      1.54    0.09    0.35
  C12                  CONDUIT     0.175     0  03:41      0.83    0.01    0.31
  C17                  CONDUIT     0.946     0  03:01      2.82    0.05    0.33
  C10                  CONDUIT     0.885     0  03:01      1.66    0.09    0.60
  C13                  CONDUIT     1.254     0  03:11      1.54    0.07    0.77
  C18                  CONDUIT     0.571     0  03:01      1.72    0.02    0.55
  C23                  CONDUIT     1.439     0  03:01      1.22    0.16    0.63
  C4                   CONDUIT     0.401     0  03:01      1.98    0.10    0.61
  C7                   CONDUIT     0.233     0  03:01      1.43    0.06    0.58
  C14                  CONDUIT     0.271     0  03:01      2.08    0.02    0.09
  C5                   CONDUIT     0.072     0  03:01      1.40    1.22    1.00
  C8                   CONDUIT     0.127     0  03:05      1.75    1.60    0.86
  C15                  CONDUIT     0.486     0  02:28      3.42    1.55    0.83
  C21                  CONDUIT     0.202     0  02:57      1.82    1.16    0.69
  V4                   ORIFICE     0.080     0  03:14                      1.00
  V5                   ORIFICE     0.039     0  02:32                      1.00
  V1                   ORIFICE     0.271     0  02:05                      1.00
  V6                   ORIFICE     0.175     0  02:27                      1.00
  V3                   ORIFICE     0.190     0  03:03                      1.00
  V2                   ORIFICE     0.140     0  03:06                      1.00
  
  
  ***************************
  Flow Classification Summary
  ***************************
  
  -------------------------------------------------------------------------------------
                      Adjusted    ---------- Fraction of Time in Flow Class ---------- 
                       /Actual         Up    Down  Sub   Sup   Up    Down  Norm  Inlet 
  Conduit               Length    Dry  Dry   Dry   Crit  Crit  Crit  Crit  Ltd   Ctrl  
  -------------------------------------------------------------------------------------
  C1                      1.00   0.00  0.00  0.00  0.80  0.20  0.00  0.00  0.93  0.00
  C6                      1.00   0.00  0.00  0.00  0.21  0.79  0.00  0.00  0.00  0.00
  C2                      1.00   0.00  0.00  0.00  0.19  0.81  0.00  0.00  0.89  0.00
  C9                      1.00   0.00  0.00  0.00  1.00  0.00  0.00  0.00  1.00  0.00
  C16                     1.00   0.00  0.00  0.00  0.54  0.46  0.00  0.00  0.36  0.00
  C3                      1.00   0.00  0.00  0.00  0.13  0.87  0.00  0.00  0.18  0.00
  C19                     1.00   0.00  0.13  0.00  0.48  0.39  0.00  0.00  0.87  0.00
  C11                     1.00   0.00  0.00  0.00  0.31  0.69  0.00  0.00  1.00  0.00
  C20                     1.00   0.00  0.00  0.00  0.60  0.40  0.00  0.00  0.98  0.00
  C22                     1.00   0.00  0.00  0.00  0.78  0.22  0.00  0.00  1.00  0.00
  C12                     1.00   0.00  0.00  0.00  0.97  0.02  0.00  0.00  1.00  0.00
  C17                     1.00   0.00  0.00  0.00  0.64  0.36  0.00  0.00  0.95  0.00
  C10                     1.00   0.00  0.00  0.00  0.94  0.06  0.00  0.00  0.97  0.00
  C13                     1.00   0.00  0.00  0.00  0.83  0.17  0.00  0.00  0.26  0.00
  C18                     1.00   0.00  0.00  0.00  0.95  0.05  0.00  0.00  0.97  0.00
  C23                     1.00   0.00  0.00  0.00  0.94  0.06  0.00  0.00  0.95  0.00
  C4                      1.00   0.00  0.00  0.00  0.96  0.04  0.00  0.00  0.98  0.00
  C7                      1.00   0.00  0.00  0.00  0.91  0.09  0.00  0.00  0.96  0.00
  C14                     1.00   0.15  0.00  0.00  0.02  0.83  0.00  0.00  0.04  0.00
  C5                      1.00   0.00  0.00  0.00  0.91  0.09  0.00  0.00  0.80  0.00
  C8                      1.00   0.00  0.00  0.00  0.22  0.78  0.00  0.00  0.00  0.00
  C15                     1.00   0.00  0.00  0.00  0.00  1.00  0.00  0.00  0.00  0.00
  C21                     1.00   0.00  0.00  0.00  0.00  1.00  0.00  0.00  0.00  0.00
  
  
  *************************
  Conduit Surcharge Summary
  *************************
  
  ----------------------------------------------------------------------------
                                                           Hours        Hours 
                         --------- Hours Full --------   Above Full   Capacity
  Conduit                Both Ends  Upstream  Dnstream   Normal Flow   Limited
  ----------------------------------------------------------------------------
  C6                          0.01      1.36      0.01      1.26         0.01
  C10                         0.01      0.01      6.04      0.01         0.01
  C13                         0.01      0.01      5.68      0.01         0.01
  C18                         0.01      0.01      5.65      0.01         0.01
  C23                         0.01      0.01      6.26      0.01         0.01
  C4                          0.01      0.01      6.27      0.01         0.01
  C7                          0.01      0.01      5.91      0.01         0.01
  C5                          1.41      1.41      1.52      1.49         1.38
  C8                          0.01      1.48      0.01      1.51         0.01
  C15                         0.01      1.46      0.01      1.54         0.01
  C21                         0.01      1.02      0.01      1.06         0.01
  

  Analysis begun on:  Mon Aug  9 21:09:47 2021
  Analysis ended on:  Mon Aug  9 21:09:47 2021
  Total elapsed time: < 1 sec