
  EPA STORM WATER MANAGEMENT MODEL - VERSION 5.1 (Build 5.3.0.dev0)
  --------------------------------------------------------------

  
  *********************************************************
  NOTE: The summary statistics displayed in this report are
  based on results found at every computational time step,  
  not just on results from each reporting time step.
  *********************************************************
  
  ****************
  Analysis Options
  ****************
  Flow Units ............... CMS
  Process Models:
    Rainfall/Runoff ........ YES
    RDII ................... NO
    Snowmelt ............... NO
    Groundwater ............ NO
    Flow Routing ........... YES
    Ponding Allowed ........ YES
    Water Quality .......... NO
  Infiltration Method ...... HORTON
  Flow Routing Method ...... DYNWAVE
  Surcharge Method ......... EXTRAN
  Starting Date ............ 08/28/2015 08:00:00
  Ending Date .............. 08/28/2015 15:50:00
  Antecedent Dry Days ...... 0.0
  Report Time Step ......... 00:01:00
  Wet Time Step ............ 00:01:00
  Dry Time Step ............ 00:01:00
  Routing Time Step ........ 5.00 sec
  Variable Time Step ....... YES
  Maximum Trials ........... 8
  Number of Threads ........ 1
  Head Tolerance ........... 0.001500 m
  
  
  **************************        Volume         Depth
  Runoff Quantity Continuity     hectare-m            mm
  **************************     ---------       -------
  Total Precipitation ......         1.505         8.349
  Evaporation Loss .........         0.000         0.000
  Infiltration Loss ........         0.000         0.000
  Surface Runoff ...........         1.482         8.222
  Final Storage ............         0.023         0.128
  Continuity Error (%) .....        -0.009
  
  
  **************************        Volume        Volume
  Flow Routing Continuity        hectare-m      10^6 ltr
  **************************     ---------     ---------
  Dry Weather Inflow .......         0.396         3.955
  Wet Weather Inflow .......         1.482        14.815
  Groundwater Inflow .......         0.000         0.000
  RDII Inflow ..............         0.000         0.000
  External Inflow ..........         0.000         0.000
  External Outflow .........         0.575         5.754
  Flooding Loss ............         0.351         3.514
  Evaporation Loss .........         0.000         0.000
  Exfiltration Loss ........         0.000         0.000
  Initial Stored Volume ....         0.000         0.000
  Final Stored Volume ......         0.713         7.133
  Continuity Error (%) .....        12.625
  
  
  *************************
  Highest Continuity Errors
  *************************
  Node T2 (35.12%)
  Node T5 (26.82%)
  Node T4 (23.59%)
  Node T3 (20.20%)
  Node T6 (16.40%)
  
  
  ***************************
  Time-Step Critical Elements
  ***************************
  None
  
  
  ********************************
  Highest Flow Instability Indexes
  ********************************
  Link C13 (1)
  
  
  *************************
  Routing Time Step Summary
  *************************
  Minimum Time Step           :     4.69 sec
  Average Time Step           :     5.00 sec
  Maximum Time Step           :     5.00 sec
  Percent in Steady State     :    -0.00
  Average Iterations per Step :     2.13
  Percent Not Converging      :     0.32
  
  
  ***************************
  Subcatchment Runoff Summary
  ***************************
  
  ------------------------------------------------------------------------------------------------------------------------------
                            Total      Total      Total      Total     Imperv       Perv      Total       Total     Peak  Runoff
                           Precip      Runon       Evap      Infil     Runoff     Runoff     Runoff      Runoff   Runoff   Coeff
  Subcatchment                 mm         mm         mm         mm         mm         mm         mm    10^6 ltr      CMS
  ------------------------------------------------------------------------------------------------------------------------------
  SC01                       8.35       0.00       0.00       0.00       8.26       0.00       8.26        2.73     0.59   0.990
  SC02                       8.35       0.00       0.00       0.00       8.26       0.00       8.26        1.88     0.39   0.989
  SC03                       8.35       0.00       0.00       0.00       8.28       0.00       8.28        1.49     0.35   0.992
  SC04                       8.35       0.00       0.00       0.00       8.16       0.00       8.16        0.56     0.09   0.977
  SC05                       8.35       0.00       0.00       0.00       8.26       0.00       8.26        1.29     0.27   0.989
  SC06                       8.35       0.00       0.00       0.00       8.11       0.00       8.11        2.64     0.39   0.971
  SC07                       8.35       0.00       0.00       0.00       8.16       0.00       8.16        0.39     0.06   0.977
  SC08                       8.35       0.00       0.00       0.00       8.23       0.00       8.23        2.31     0.44   0.986
  SC09                       8.35       0.00       0.00       0.00       8.21       0.00       8.21        0.57     0.10   0.983
  SC010                      8.35       0.00       0.00       0.00       8.24       0.00       8.24        0.97     0.19   0.987
  
  
  ******************
  Node Depth Summary
  ******************
  
  ---------------------------------------------------------------------------------
                                 Average  Maximum  Maximum  Time of Max    Reported
                                   Depth    Depth      HGL   Occurrence   Max Depth
  Node                 Type       Meters   Meters   Meters  days hr:min      Meters
  ---------------------------------------------------------------------------------
  J1                   JUNCTION     0.08     0.18    34.18     0  01:36        0.18
  J3                   JUNCTION     0.09     0.12    18.12     0  04:50        0.12
  CSO7                 JUNCTION     0.16     1.20    35.20     0  01:40        1.20
  J5                   JUNCTION     0.07     0.14    32.14     0  01:45        0.14
  CSO9                 JUNCTION     0.17     1.21    41.21     0  01:40        1.21
  J8                   JUNCTION     0.12     0.24    36.24     0  01:47        0.24
  CSO8                 JUNCTION     0.21     1.64    33.64     0  01:38        1.64
  J10                  JUNCTION     0.10     0.27    29.27     0  01:38        0.27
  J13                  JUNCTION     0.07     0.17    29.17     0  01:36        0.17
  J15                  JUNCTION     0.17     0.30    15.30     0  01:40        0.30
  J16                  JUNCTION     0.07     0.19    30.19     0  01:35        0.19
  CSO10                JUNCTION     0.14     0.89    30.89     0  01:33        0.82
  J12                  JUNCTION     0.29     0.44    26.44     0  04:52        0.44
  J4                   JUNCTION     0.16     1.19    34.19     0  01:40        0.76
  J6                   JUNCTION     0.05     0.07    25.07     0  04:26        0.07
  J2                   JUNCTION     0.00     0.00    25.00     0  00:00        0.00
  J19                  JUNCTION     0.14     0.17     8.17     0  02:14        0.17
  J9                   JUNCTION     0.08     0.11    29.11     0  03:34        0.11
  J14                  JUNCTION     0.11     0.15    20.15     0  04:58        0.15
  J17                  JUNCTION     0.06     0.07    20.07     0  04:21        0.07
  J7                   JUNCTION     0.09     0.21    39.21     0  01:43        0.21
  J11                  JUNCTION     0.11     0.28    31.28     0  01:40        0.28
  J18                  JUNCTION     0.06     0.16    29.16     0  01:39        0.16
  Out_to_WWTP          OUTFALL      0.14     0.17     6.17     0  03:57        0.17
  T5                   STORAGE      3.88     5.00    32.00     0  02:30        5.00
  T4                   STORAGE      3.50     5.00    32.00     0  03:40        5.00
  T6                   STORAGE      3.82     5.00    36.00     0  02:12        5.00
  T3                   STORAGE      3.16     4.44    26.44     0  04:57        4.44
  T2                   STORAGE      3.36     4.70    25.70     0  04:19        4.70
  T1                   STORAGE      3.45     5.00    15.00     0  02:13        5.00
  
  
  *******************
  Node Inflow Summary
  *******************
  
  -------------------------------------------------------------------------------------------------
                                  Maximum  Maximum                  Lateral       Total        Flow
                                  Lateral    Total  Time of Max      Inflow      Inflow     Balance
                                   Inflow   Inflow   Occurrence      Volume      Volume       Error
  Node                 Type           CMS      CMS  days hr:min    10^6 ltr    10^6 ltr     Percent
  -------------------------------------------------------------------------------------------------
  J1                   JUNCTION     0.287    0.287     0  01:35        1.85        1.85       0.031
  J3                   JUNCTION     0.000    0.144     0  04:49           0        2.97       1.119
  CSO7                 JUNCTION     0.071    0.071     0  01:44       0.678       0.678       0.068
  J5                   JUNCTION     0.094    0.164     0  01:44       0.691        1.36       0.112
  CSO9                 JUNCTION     0.107    0.107     0  01:40       0.763       0.763       0.050
  J8                   JUNCTION     0.418    0.523     0  01:46        3.58        4.34       0.125
  CSO8                 JUNCTION     0.450    0.450     0  01:38         2.6         2.6       0.015
  J10                  JUNCTION     0.364    0.789     0  01:36        1.88        4.47       0.063
  J13                  JUNCTION     0.408    0.408     0  01:35        2.35        2.35      -0.234
  J15                  JUNCTION     0.000    0.790     0  01:36           0        7.99       0.879
  J16                  JUNCTION     0.603    0.603     0  01:35        3.28        3.28      -0.035
  CSO10                JUNCTION     0.192    0.192     0  01:38        1.11        1.11       0.019
  J12                  JUNCTION     0.000    0.786     0  01:38           0        6.21       3.073
  J4                   JUNCTION     0.000    0.070     0  01:45           0       0.677       0.489
  J6                   JUNCTION     0.000    0.028     0  03:40           0       0.574       0.648
  J2                   JUNCTION     0.000    0.000     0  00:00           0           0       0.000 ltr
  J19                  JUNCTION     0.000    0.271     0  02:13           0        5.77       0.189
  J9                   JUNCTION     0.000    0.075     0  02:12           0        1.61       1.388
  J14                  JUNCTION     0.000    0.116     0  04:57           0        2.41       0.273
  J17                  JUNCTION     0.000    0.032     0  04:19           0       0.666       1.184
  J7                   JUNCTION     0.000    0.107     0  01:40           0       0.762       0.416
  J11                  JUNCTION     0.000    0.450     0  01:38           0         2.6       0.252
  J18                  JUNCTION     0.000    0.192     0  01:38           0        1.11       0.045
  Out_to_WWTP          OUTFALL      0.000    0.271     0  02:15           0        5.75       0.000
  T5                   STORAGE      0.000    0.287     0  01:36           0        1.85      36.656
  T4                   STORAGE      0.000    0.164     0  01:45           0        1.36      30.878
  T6                   STORAGE      0.000    0.522     0  01:47           0        4.33      19.623
  T3                   STORAGE      0.000    0.778     0  01:40           0        6.02      25.320
  T2                   STORAGE      0.000    0.408     0  01:36           0        2.35      54.134
  T1                   STORAGE      0.000    0.773     0  01:40           0        7.92       7.695
  
  
  **********************
  Node Surcharge Summary
  **********************
  
  Surcharging occurs when water rises above the top of the highest conduit.
  ---------------------------------------------------------------------
                                               Max. Height   Min. Depth
                                   Hours       Above Crown    Below Rim
  Node                 Type      Surcharged         Meters       Meters
  ---------------------------------------------------------------------
  CSO7                 JUNCTION        0.64          0.945        0.000
  CSO9                 JUNCTION        0.67          0.896        0.786
  CSO8                 JUNCTION        0.65          1.186        0.361
  CSO10                JUNCTION        0.33          0.447        0.113
  J4                   JUNCTION        0.61          0.893        0.807
  
  
  *********************
  Node Flooding Summary
  *********************
  
  Flooding refers to all water that overflows a node, whether it ponds or not.
  --------------------------------------------------------------------------
                                                             Total   Maximum
                                 Maximum   Time of Max       Flood    Ponded
                        Hours       Rate    Occurrence      Volume     Depth
  Node                 Flooded       CMS   days hr:min    10^6 ltr    Meters
  --------------------------------------------------------------------------
  CSO7                    0.14     0.005      0  01:40       0.000     0.000
  T5                      5.32     0.185      0  03:01       0.854     0.000
  T4                      1.02     0.022      0  03:40       0.028     0.000
  T6                      2.82     0.361      0  02:12       1.512     0.000
  T1                      1.53     0.362      0  03:02       1.120     0.000
  
  
  **********************
  Storage Volume Summary
  **********************
  
  --------------------------------------------------------------------------------------------------
                         Average     Avg  Evap Exfil       Maximum     Max    Time of Max    Maximum
                          Volume    Pcnt  Pcnt  Pcnt        Volume    Pcnt     Occurrence    Outflow
  Storage Unit           1000 m3    Full  Loss  Loss       1000 m3    Full    days hr:min        CMS
  --------------------------------------------------------------------------------------------------
  T5                       0.388      78     0     0         0.500     100       0  02:30      0.000
  T4                       0.350      70     0     0         0.500     100       0  03:40      0.028
  T6                       0.459      76     0     0         0.600     100       0  02:12      0.075
  T3                       1.644      63     0     0         2.308      89       0  04:57      0.180
  T2                       0.671      67     0     0         0.939      94       0  04:19      0.032
  T1                       0.483      69     0     0         0.700     100       0  02:13      0.271
  
  
  ***********************
  Outfall Loading Summary
  ***********************
  
  -----------------------------------------------------------
                         Flow       Avg       Max       Total
                         Freq      Flow      Flow      Volume
  Outfall Node           Pcnt       CMS       CMS    10^6 ltr
  -----------------------------------------------------------
  Out_to_WWTP           99.01     0.206     0.271       5.754
  -----------------------------------------------------------
  System                99.01     0.206     0.271       5.754
  
  
  ********************
  Link Flow Summary
  ********************
  
  -----------------------------------------------------------------------------
                                 Maximum  Time of Max   Maximum    Max/    Max/
                                  |Flow|   Occurrence   |Veloc|    Full    Full
  Link                 Type          CMS  days hr:min     m/sec    Flow   Depth
  -----------------------------------------------------------------------------
  C1                   CONDUIT     0.000     0  00:00      0.00    0.00    0.06
  C6                   CONDUIT     0.070     0  01:45      1.28    1.12    0.73
  C2                   CONDUIT     0.028     0  04:25      0.97    0.03    0.16
  C9                   CONDUIT     0.106     0  01:43      1.27    0.36    0.44
  C16                  CONDUIT     0.448     0  01:40      1.71    0.04    0.14
  C3                   CONDUIT     0.116     0  04:58      1.84    0.04    0.13
  C19                  CONDUIT     0.032     0  04:21      0.64    0.01    0.17
  C11                  CONDUIT     0.144     0  04:50      1.53    0.01    0.10
  C20                  CONDUIT     0.603     0  01:35      2.94    0.02    0.12
  C22                  CONDUIT     0.191     0  01:39      1.63    0.09    0.28
  C12                  CONDUIT     0.075     0  03:34      0.63    0.01    0.14
  C17                  CONDUIT     0.786     0  01:38      2.99    0.04    0.14
  C10                  CONDUIT     0.522     0  01:47      1.65    0.05    0.58
  C13                  CONDUIT     0.778     0  01:40      1.58    0.05    0.61
  C18                  CONDUIT     0.408     0  01:36      1.72    0.02    0.54
  C23                  CONDUIT     0.773     0  01:40      1.59    0.09    0.60
  C4                   CONDUIT     0.287     0  01:36      1.97    0.07    0.59
  C7                   CONDUIT     0.164     0  01:45      1.41    0.04    0.57
  C14                  CONDUIT     0.271     0  02:15      2.08    0.02    0.09
  C5                   CONDUIT     0.070     0  01:45      1.37    1.20    1.00
  C8                   CONDUIT     0.107     0  01:40      1.53    1.35    0.83
  C15                  CONDUIT     0.450     0  01:38      3.21    1.43    0.81
  C21                  CONDUIT     0.192     0  01:38      1.76    1.10    0.68
  V4                   ORIFICE     0.028     0  03:40                      0.35
  V5                   ORIFICE     0.000     0  00:00                      0.00
  V1                   ORIFICE     0.271     0  02:13                      1.00
  V6                   ORIFICE     0.075     0  02:12                      0.43
  V3                   ORIFICE     0.116     0  04:57                      0.65
  V2                   ORIFICE     0.032     0  04:19                      0.24
  
  
  ***************************
  Flow Classification Summary
  ***************************
  
  -------------------------------------------------------------------------------------
                      Adjusted    ---------- Fraction of Time in Flow Class ---------- 
                       /Actual         Up    Down  Sub   Sup   Up    Down  Norm  Inlet 
  Conduit               Length    Dry  Dry   Dry   Crit  Crit  Crit  Crit  Ltd   Ctrl  
  -------------------------------------------------------------------------------------
  C1                      1.00   0.21  0.79  0.00  0.00  0.00  0.00  0.00  0.00  0.00
  C6                      1.00   0.00  0.00  0.00  0.11  0.89  0.00  0.00  0.00  0.00
  C2                      1.00   0.21  0.00  0.00  0.00  0.79  0.00  0.00  0.77  0.00
  C9                      1.00   0.00  0.00  0.00  1.00  0.00  0.00  0.00  1.00  0.00
  C16                     1.00   0.00  0.00  0.00  0.56  0.43  0.00  0.00  0.45  0.00
  C3                      1.00   0.21  0.00  0.00  0.00  0.79  0.00  0.00  0.00  0.00
  C19                     1.00   0.00  0.21  0.00  0.79  0.00  0.00  0.00  0.79  0.00
  C11                     1.00   0.00  0.21  0.00  0.20  0.58  0.00  0.00  0.79  0.00
  C20                     1.00   0.00  0.00  0.00  0.55  0.45  0.00  0.00  0.97  0.00
  C22                     1.00   0.00  0.00  0.00  0.72  0.28  0.00  0.00  1.00  0.00
  C12                     1.00   0.00  0.21  0.00  0.79  0.00  0.00  0.00  0.79  0.00
  C17                     1.00   0.00  0.00  0.00  0.58  0.42  0.00  0.00  0.90  0.00
  C10                     1.00   0.00  0.00  0.00  0.97  0.03  0.00  0.00  0.98  0.00
  C13                     1.00   0.00  0.00  0.00  0.85  0.15  0.00  0.00  0.32  0.00
  C18                     1.00   0.00  0.00  0.00  0.95  0.05  0.00  0.00  0.97  0.00
  C23                     1.00   0.00  0.00  0.00  0.82  0.18  0.00  0.00  0.94  0.00
  C4                      1.00   0.00  0.00  0.00  0.97  0.03  0.00  0.00  0.98  0.00
  C7                      1.00   0.00  0.00  0.00  0.95  0.05  0.00  0.00  0.97  0.00
  C14                     1.00   0.00  0.00  0.00  0.00  0.99  0.00  0.00  0.21  0.00
  C5                      1.00   0.00  0.00  0.00  0.92  0.08  0.00  0.00  0.90  0.00
  C8                      1.00   0.00  0.00  0.00  0.16  0.84  0.00  0.00  0.00  0.00
  C15                     1.00   0.00  0.00  0.00  0.00  1.00  0.00  0.00  0.00  0.00
  C21                     1.00   0.00  0.00  0.00  0.01  0.99  0.00  0.00  0.00  0.00
  
  
  *************************
  Conduit Surcharge Summary
  *************************
  
  ----------------------------------------------------------------------------
                                                           Hours        Hours 
                         --------- Hours Full --------   Above Full   Capacity
  Conduit                Both Ends  Upstream  Dnstream   Normal Flow   Limited
  ----------------------------------------------------------------------------
  C6                          0.01      0.61      0.01      0.43         0.01
  C10                         0.01      0.01      6.24      0.01         0.01
  C13                         0.01      0.01      5.80      0.01         0.01
  C18                         0.01      0.01      5.95      0.01         0.01
  C23                         0.01      0.01      6.21      0.01         0.01
  C4                          0.01      0.01      6.36      0.01         0.01
  C7                          0.01      0.01      6.18      0.01         0.01
  C5                          0.62      0.64      0.77      0.66         0.57
  C8                          0.01      0.67      0.01      0.67         0.01
  C15                         0.01      0.65      0.01      0.69         0.01
  C21                         0.01      0.33      0.01      0.28         0.01
  

  Analysis begun on:  Fri Sep  3 20:11:52 2021
  Analysis ended on:  Fri Sep  3 20:11:52 2021
  Total elapsed time: < 1 sec