
  EPA STORM WATER MANAGEMENT MODEL - VERSION 5.1 (Build 5.3.0.dev0)
  --------------------------------------------------------------

  
  *********************************************************
  NOTE: The summary statistics displayed in this report are
  based on results found at every computational time step,  
  not just on results from each reporting time step.
  *********************************************************
  
  ****************
  Analysis Options
  ****************
  Flow Units ............... CMS
  Process Models:
    Rainfall/Runoff ........ YES
    RDII ................... NO
    Snowmelt ............... NO
    Groundwater ............ NO
    Flow Routing ........... YES
    Ponding Allowed ........ YES
    Water Quality .......... NO
  Infiltration Method ...... HORTON
  Flow Routing Method ...... DYNWAVE
  Surcharge Method ......... EXTRAN
  Starting Date ............ 08/28/2015 08:00:00
  Ending Date .............. 08/28/2015 15:50:00
  Antecedent Dry Days ...... 0.0
  Report Time Step ......... 00:01:00
  Wet Time Step ............ 00:01:00
  Dry Time Step ............ 00:01:00
  Routing Time Step ........ 5.00 sec
  Variable Time Step ....... YES
  Maximum Trials ........... 8
  Number of Threads ........ 1
  Head Tolerance ........... 0.001500 m
  
  
  **************************        Volume         Depth
  Runoff Quantity Continuity     hectare-m            mm
  **************************     ---------       -------
  Total Precipitation ......         2.406        13.353
  Evaporation Loss .........         0.000         0.000
  Infiltration Loss ........         0.000         0.000
  Surface Runoff ...........         2.383        13.223
  Final Storage ............         0.024         0.131
  Continuity Error (%) .....        -0.006
  
  
  **************************        Volume        Volume
  Flow Routing Continuity        hectare-m      10^6 ltr
  **************************     ---------     ---------
  Dry Weather Inflow .......         0.396         3.955
  Wet Weather Inflow .......         2.383        23.828
  Groundwater Inflow .......         0.000         0.000
  RDII Inflow ..............         0.000         0.000
  External Inflow ..........         0.000         0.000
  External Outflow .........         0.574         5.745
  Flooding Loss ............         1.144        11.438
  Evaporation Loss .........         0.000         0.000
  Exfiltration Loss ........         0.000         0.000
  Initial Stored Volume ....         0.000         0.000
  Final Stored Volume ......         0.804         8.039
  Continuity Error (%) .....         9.218
  
  
  *************************
  Highest Continuity Errors
  *************************
  Node T2 (24.97%)
  Node T3 (19.27%)
  Node T5 (18.76%)
  Node T4 (18.14%)
  Node T6 (11.63%)
  
  
  ***************************
  Time-Step Critical Elements
  ***************************
  None
  
  
  ********************************
  Highest Flow Instability Indexes
  ********************************
  All links are stable.
  
  
  *************************
  Routing Time Step Summary
  *************************
  Minimum Time Step           :     4.50 sec
  Average Time Step           :     5.00 sec
  Maximum Time Step           :     5.00 sec
  Percent in Steady State     :     0.00
  Average Iterations per Step :     2.20
  Percent Not Converging      :     0.55
  
  
  ***************************
  Subcatchment Runoff Summary
  ***************************
  
  ------------------------------------------------------------------------------------------------------------------------------
                            Total      Total      Total      Total     Imperv       Perv      Total       Total     Peak  Runoff
                           Precip      Runon       Evap      Infil     Runoff     Runoff     Runoff      Runoff   Runoff   Coeff
  Subcatchment                 mm         mm         mm         mm         mm         mm         mm    10^6 ltr      CMS
  ------------------------------------------------------------------------------------------------------------------------------
  SC01                      13.35       0.00       0.00       0.00      13.27       0.00      13.27        4.38     1.10   0.994
  SC02                      13.35       0.00       0.00       0.00      13.26       0.00      13.26        3.02     0.75   0.993
  SC03                      13.35       0.00       0.00       0.00      13.28       0.00      13.28        2.39     0.63   0.995
  SC04                      13.35       0.00       0.00       0.00      13.16       0.00      13.16        0.91     0.20   0.985
  SC05                      13.35       0.00       0.00       0.00      13.26       0.00      13.26        2.07     0.51   0.993
  SC06                      13.35       0.00       0.00       0.00      13.10       0.00      13.10        4.27     0.88   0.981
  SC07                      13.35       0.00       0.00       0.00      13.16       0.00      13.16        0.63     0.14   0.986
  SC08                      13.35       0.00       0.00       0.00      13.24       0.00      13.24        3.71     0.88   0.991
  SC09                      13.35       0.00       0.00       0.00      13.21       0.00      13.21        0.91     0.21   0.989
  SC010                     13.35       0.00       0.00       0.00      13.24       0.00      13.24        1.56     0.37   0.992
  
  
  ******************
  Node Depth Summary
  ******************
  
  ---------------------------------------------------------------------------------
                                 Average  Maximum  Maximum  Time of Max    Reported
                                   Depth    Depth      HGL   Occurrence   Max Depth
  Node                 Type       Meters   Meters   Meters  days hr:min      Meters
  ---------------------------------------------------------------------------------
  J1                   JUNCTION     0.09     0.24    34.24     0  02:15        0.24
  J3                   JUNCTION     0.09     0.12    18.12     0  03:36        0.12
  CSO7                 JUNCTION     0.27     1.20    35.20     0  01:53        1.20
  J5                   JUNCTION     0.07     0.18    32.18     0  02:18        0.18
  CSO9                 JUNCTION     0.38     2.00    42.00     0  01:58        2.00
  J8                   JUNCTION     0.13     0.33    36.33     0  02:20        0.33
  CSO8                 JUNCTION     0.40     2.00    34.00     0  01:55        2.00
  J10                  JUNCTION     0.11     0.32    29.32     0  02:14        0.32
  J13                  JUNCTION     0.08     0.23    29.23     0  02:15        0.23
  J15                  JUNCTION     0.18     0.40    15.40     0  02:18        0.40
  J16                  JUNCTION     0.08     0.26    30.26     0  02:14        0.26
  CSO10                JUNCTION     0.23     1.00    31.00     0  01:54        1.00
  J12                  JUNCTION     0.68     1.01    27.01     0  03:15        1.01
  J4                   JUNCTION     0.21     1.28    34.28     0  01:53        0.76
  J6                   JUNCTION     0.06     0.07    25.07     0  03:31        0.07
  J2                   JUNCTION     0.00     0.00    25.00     0  00:00        0.00
  J19                  JUNCTION     0.14     0.17     8.17     0  02:12        0.17
  J9                   JUNCTION     0.08     0.11    29.11     0  03:54        0.11
  J14                  JUNCTION     0.12     0.15    20.15     0  03:06        0.15
  J17                  JUNCTION     0.06     0.08    20.08     0  03:32        0.08
  J7                   JUNCTION     0.10     0.23    39.23     0  02:51        0.23
  J11                  JUNCTION     0.12     0.30    31.30     0  02:51        0.30
  J18                  JUNCTION     0.06     0.16    29.16     0  02:31        0.16
  Out_to_WWTP          OUTFALL      0.14     0.17     6.17     0  04:06        0.17
  T5                   STORAGE      3.86     5.00    32.00     0  02:14        5.00
  T4                   STORAGE      3.59     5.00    32.00     0  02:42        5.00
  T6                   STORAGE      3.78     5.00    36.00     0  02:11        5.00
  T3                   STORAGE      3.59     5.00    27.00     0  03:04        5.00
  T2                   STORAGE      3.66     5.00    26.00     0  02:30        5.00
  T1                   STORAGE      3.47     5.00    15.00     0  02:10        5.00
  
  
  *******************
  Node Inflow Summary
  *******************
  
  -------------------------------------------------------------------------------------------------
                                  Maximum  Maximum                  Lateral       Total        Flow
                                  Lateral    Total  Time of Max      Inflow      Inflow     Balance
                                   Inflow   Inflow   Occurrence      Volume      Volume       Error
  Node                 Type           CMS      CMS  days hr:min    10^6 ltr    10^6 ltr     Percent
  -------------------------------------------------------------------------------------------------
  J1                   JUNCTION     0.535    0.535     0  02:14        2.63        2.63       0.023
  J3                   JUNCTION     0.000    0.152     0  03:07           0        3.14       1.097
  CSO7                 JUNCTION     0.146    0.146     0  02:18       0.916       0.916       0.051
  J5                   JUNCTION     0.201    0.273     0  02:18        1.04        1.77       0.091
  CSO9                 JUNCTION     0.216    0.216     0  02:16        1.11        1.11       0.040
  J8                   JUNCTION     0.910    1.038     0  02:19        5.21        6.16       0.092
  CSO8                 JUNCTION     0.892    0.892     0  02:15           4           4       0.012
  J10                  JUNCTION     0.646    1.132     0  02:13        2.78         6.1      -0.050
  J13                  JUNCTION     0.768    0.768     0  02:14        3.48        3.48      -0.136
  J15                  JUNCTION     0.000    1.455     0  02:15           0        10.1       0.720
  J16                  JUNCTION     1.124    1.124     0  02:14        4.93        4.93      -0.028
  CSO10                JUNCTION     0.378    0.378     0  02:15        1.69        1.69       0.016
  J12                  JUNCTION     0.000    1.201     0  02:14           0        7.69       9.793
  J4                   JUNCTION     0.000    0.073     0  01:53           0       0.743       0.453
  J6                   JUNCTION     0.000    0.028     0  02:42           0       0.582       0.645
  J2                   JUNCTION     0.000    0.000     0  00:00           0           0       0.000 ltr
  J19                  JUNCTION     0.000    0.271     0  02:10           0        5.76       0.194
  J9                   JUNCTION     0.000    0.075     0  02:11           0         1.6       1.372
  J14                  JUNCTION     0.000    0.124     0  03:04           0        2.57       0.270
  J17                  JUNCTION     0.000    0.033     0  02:30           0       0.696       1.160
  J7                   JUNCTION     0.000    0.127     0  02:51           0       0.961       0.323
  J11                  JUNCTION     0.000    0.487     0  02:51           0        3.33       0.195
  J18                  JUNCTION     0.000    0.202     0  02:32           0         1.4       0.033
  Out_to_WWTP          OUTFALL      0.000    0.271     0  02:12           0        5.74       0.000
  T5                   STORAGE      0.000    0.535     0  02:15           0        2.63      23.094
  T4                   STORAGE      0.000    0.273     0  02:18           0        1.77      22.165
  T6                   STORAGE      0.000    1.037     0  02:20           0        6.16      13.157
  T3                   STORAGE      0.000    1.190     0  02:17           0           7      23.877
  T2                   STORAGE      0.000    0.768     0  02:15           0        3.49      33.278
  T1                   STORAGE      0.000    1.433     0  02:18           0        10.1       6.304
  
  
  **********************
  Node Surcharge Summary
  **********************
  
  Surcharging occurs when water rises above the top of the highest conduit.
  ---------------------------------------------------------------------
                                               Max. Height   Min. Depth
                                   Hours       Above Crown    Below Rim
  Node                 Type      Surcharged         Meters       Meters
  ---------------------------------------------------------------------
  CSO7                 JUNCTION        1.37          0.945        0.000
  CSO9                 JUNCTION        1.39          1.682        0.000
  CSO8                 JUNCTION        1.38          1.547        0.000
  CSO10                JUNCTION        1.17          0.560        0.000
  J4                   JUNCTION        1.34          0.982        0.718
  
  
  *********************
  Node Flooding Summary
  *********************
  
  Flooding refers to all water that overflows a node, whether it ponds or not.
  --------------------------------------------------------------------------
                                                             Total   Maximum
                                 Maximum   Time of Max       Flood    Ponded
                        Hours       Rate    Occurrence      Volume     Depth
  Node                 Flooded       CMS   days hr:min    10^6 ltr    Meters
  --------------------------------------------------------------------------
  CSO7                    1.19     0.073      0  02:18       0.172     0.000
  CSO9                    0.89     0.089      0  02:16       0.147     0.000
  CSO8                    0.93     0.406      0  02:15       0.667     0.000
  CSO10                   0.95     0.175      0  02:15       0.290     0.000
  T5                      5.59     0.535      0  02:15       1.637     0.000
  T4                      2.13     0.195      0  02:42       0.429     0.000
  T6                      2.91     0.962      0  02:20       3.333     0.000
  T3                      1.10     0.666      0  03:04       0.548     0.000
  T2                      1.80     0.559      0  02:30       1.007     0.000
  T1                      1.69     1.163      0  02:18       3.209     0.000
  
  
  **********************
  Storage Volume Summary
  **********************
  
  --------------------------------------------------------------------------------------------------
                         Average     Avg  Evap Exfil       Maximum     Max    Time of Max    Maximum
                          Volume    Pcnt  Pcnt  Pcnt        Volume    Pcnt     Occurrence    Outflow
  Storage Unit           1000 m3    Full  Loss  Loss       1000 m3    Full    days hr:min        CMS
  --------------------------------------------------------------------------------------------------
  T5                       0.386      77     0     0         0.500     100       0  02:14      0.000
  T4                       0.359      72     0     0         0.500     100       0  02:42      0.028
  T6                       0.454      76     0     0         0.600     100       0  02:11      0.075
  T3                       1.869      72     0     0         2.600     100       0  03:04      0.180
  T2                       0.732      73     0     0         1.000     100       0  02:30      0.033
  T1                       0.486      69     0     0         0.700     100       0  02:10      0.271
  
  
  ***********************
  Outfall Loading Summary
  ***********************
  
  -----------------------------------------------------------
                         Flow       Avg       Max       Total
                         Freq      Flow      Flow      Volume
  Outfall Node           Pcnt       CMS       CMS    10^6 ltr
  -----------------------------------------------------------
  Out_to_WWTP           99.01     0.206     0.271       5.745
  -----------------------------------------------------------
  System                99.01     0.206     0.271       5.745
  
  
  ********************
  Link Flow Summary
  ********************
  
  -----------------------------------------------------------------------------
                                 Maximum  Time of Max   Maximum    Max/    Max/
                                  |Flow|   Occurrence   |Veloc|    Full    Full
  Link                 Type          CMS  days hr:min     m/sec    Flow   Depth
  -----------------------------------------------------------------------------
  C1                   CONDUIT     0.000     0  00:00      0.00    0.00    0.06
  C6                   CONDUIT     0.072     0  02:18      1.29    1.15    0.79
  C2                   CONDUIT     0.028     0  03:30      0.95    0.03    0.16
  C9                   CONDUIT     0.127     0  02:51      1.30    0.43    0.56
  C16                  CONDUIT     0.488     0  02:04      1.79    0.05    0.15
  C3                   CONDUIT     0.124     0  03:07      1.88    0.05    0.14
  C19                  CONDUIT     0.033     0  03:32      0.64    0.01    0.24
  C11                  CONDUIT     0.152     0  03:36      1.56    0.01    0.13
  C20                  CONDUIT     1.123     0  02:14      3.38    0.04    0.16
  C22                  CONDUIT     0.202     0  02:32      1.63    0.09    0.35
  C12                  CONDUIT     0.075     0  03:55      0.41    0.01    0.28
  C17                  CONDUIT     1.127     0  02:14      3.22    0.06    0.31
  C10                  CONDUIT     1.037     0  02:20      1.65    0.11    0.61
  C13                  CONDUIT     1.190     0  02:17      1.39    0.07    0.75
  C18                  CONDUIT     0.768     0  02:15      1.72    0.03    0.56
  C23                  CONDUIT     1.433     0  02:18      1.49    0.16    0.63
  C4                   CONDUIT     0.535     0  02:15      1.97    0.13    0.62
  C7                   CONDUIT     0.273     0  02:18      1.41    0.07    0.59
  C14                  CONDUIT     0.271     0  02:12      2.08    0.02    0.09
  C5                   CONDUIT     0.073     0  01:53      1.43    1.25    1.00
  C8                   CONDUIT     0.127     0  02:51      1.75    1.60    0.86
  C15                  CONDUIT     0.487     0  02:51      3.42    1.55    0.83
  C21                  CONDUIT     0.202     0  02:32      1.83    1.16    0.69
  V4                   ORIFICE     0.028     0  02:42                      0.35
  V5                   ORIFICE     0.000     0  00:00                      0.00
  V1                   ORIFICE     0.271     0  02:10                      1.00
  V6                   ORIFICE     0.075     0  02:11                      0.43
  V3                   ORIFICE     0.124     0  03:04                      0.65
  V2                   ORIFICE     0.033     0  02:30                      0.24
  
  
  ***************************
  Flow Classification Summary
  ***************************
  
  -------------------------------------------------------------------------------------
                      Adjusted    ---------- Fraction of Time in Flow Class ---------- 
                       /Actual         Up    Down  Sub   Sup   Up    Down  Norm  Inlet 
  Conduit               Length    Dry  Dry   Dry   Crit  Crit  Crit  Crit  Ltd   Ctrl  
  -------------------------------------------------------------------------------------
  C1                      1.00   0.21  0.79  0.00  0.00  0.00  0.00  0.00  0.00  0.00
  C6                      1.00   0.00  0.00  0.00  0.20  0.80  0.00  0.00  0.00  0.00
  C2                      1.00   0.21  0.00  0.00  0.00  0.79  0.00  0.00  0.77  0.00
  C9                      1.00   0.00  0.00  0.00  1.00  0.00  0.00  0.00  1.00  0.00
  C16                     1.00   0.00  0.00  0.00  0.56  0.44  0.00  0.00  0.50  0.00
  C3                      1.00   0.21  0.00  0.00  0.00  0.79  0.00  0.00  0.00  0.00
  C19                     1.00   0.00  0.21  0.00  0.79  0.00  0.00  0.00  0.79  0.00
  C11                     1.00   0.00  0.21  0.00  0.21  0.58  0.00  0.00  0.79  0.00
  C20                     1.00   0.00  0.00  0.00  0.55  0.45  0.00  0.00  0.97  0.00
  C22                     1.00   0.00  0.00  0.00  0.76  0.24  0.00  0.00  1.00  0.00
  C12                     1.00   0.00  0.21  0.00  0.79  0.00  0.00  0.00  0.79  0.00
  C17                     1.00   0.00  0.00  0.00  0.65  0.35  0.00  0.00  0.91  0.00
  C10                     1.00   0.00  0.00  0.00  0.97  0.03  0.00  0.00  0.98  0.00
  C13                     1.00   0.00  0.00  0.00  0.85  0.15  0.00  0.00  0.24  0.00
  C18                     1.00   0.00  0.00  0.00  0.95  0.05  0.00  0.00  0.97  0.00
  C23                     1.00   0.00  0.00  0.00  0.82  0.18  0.00  0.00  0.94  0.00
  C4                      1.00   0.00  0.00  0.00  0.97  0.03  0.00  0.00  0.98  0.00
  C7                      1.00   0.00  0.00  0.00  0.95  0.05  0.00  0.00  0.97  0.00
  C14                     1.00   0.00  0.00  0.00  0.00  0.99  0.00  0.00  0.23  0.00
  C5                      1.00   0.00  0.00  0.00  0.91  0.09  0.00  0.00  0.80  0.00
  C8                      1.00   0.00  0.00  0.00  0.21  0.79  0.00  0.00  0.00  0.00
  C15                     1.00   0.00  0.00  0.00  0.00  1.00  0.00  0.00  0.00  0.00
  C21                     1.00   0.00  0.00  0.00  0.01  0.99  0.00  0.00  0.00  0.00
  
  
  *************************
  Conduit Surcharge Summary
  *************************
  
  ----------------------------------------------------------------------------
                                                           Hours        Hours 
                         --------- Hours Full --------   Above Full   Capacity
  Conduit                Both Ends  Upstream  Dnstream   Normal Flow   Limited
  ----------------------------------------------------------------------------
  C6                          0.01      1.34      0.01      1.24         0.01
  C10                         0.01      0.01      6.15      0.01         0.01
  C13                         0.01      0.01      5.72      0.01         0.01
  C18                         0.01      0.01      5.83      0.01         0.01
  C23                         0.01      0.01      6.08      0.01         0.01
  C4                          0.01      0.01      6.30      0.01         0.01
  C7                          0.01      0.01      6.07      0.01         0.01
  C5                          1.36      1.37      1.46      1.41         1.33
  C8                          0.01      1.39      0.01      1.41         0.01
  C15                         0.01      1.38      0.01      1.43         0.01
  C21                         0.01      1.17      0.01      1.14         0.01
  

  Analysis begun on:  Fri Sep  3 20:12:16 2021
  Analysis ended on:  Fri Sep  3 20:12:16 2021
  Total elapsed time: < 1 sec