
  EPA STORM WATER MANAGEMENT MODEL - VERSION 5.1 (Build 5.3.0.dev0)
  --------------------------------------------------------------

  
  *********************************************************
  NOTE: The summary statistics displayed in this report are
  based on results found at every computational time step,  
  not just on results from each reporting time step.
  *********************************************************
  
  ****************
  Analysis Options
  ****************
  Flow Units ............... CMS
  Process Models:
    Rainfall/Runoff ........ YES
    RDII ................... NO
    Snowmelt ............... NO
    Groundwater ............ NO
    Flow Routing ........... YES
    Ponding Allowed ........ YES
    Water Quality .......... NO
  Infiltration Method ...... HORTON
  Flow Routing Method ...... DYNWAVE
  Surcharge Method ......... EXTRAN
  Starting Date ............ 08/28/2015 08:00:00
  Ending Date .............. 08/28/2015 15:50:00
  Antecedent Dry Days ...... 0.0
  Report Time Step ......... 00:01:00
  Wet Time Step ............ 00:01:00
  Dry Time Step ............ 00:01:00
  Routing Time Step ........ 5.00 sec
  Variable Time Step ....... YES
  Maximum Trials ........... 8
  Number of Threads ........ 1
  Head Tolerance ........... 0.001500 m
  
  
  **************************        Volume         Depth
  Runoff Quantity Continuity     hectare-m            mm
  **************************     ---------       -------
  Total Precipitation ......         1.148         6.369
  Evaporation Loss .........         0.000         0.000
  Infiltration Loss ........         0.000         0.000
  Surface Runoff ...........         1.124         6.239
  Final Storage ............         0.024         0.131
  Continuity Error (%) .....        -0.009
  
  
  **************************        Volume        Volume
  Flow Routing Continuity        hectare-m      10^6 ltr
  **************************     ---------     ---------
  Dry Weather Inflow .......         0.396         3.955
  Wet Weather Inflow .......         1.124        11.242
  Groundwater Inflow .......         0.000         0.000
  RDII Inflow ..............         0.000         0.000
  External Inflow ..........         0.000         0.000
  External Outflow .........         0.507         5.067
  Flooding Loss ............         0.181         1.807
  Evaporation Loss .........         0.000         0.000
  Exfiltration Loss ........         0.000         0.000
  Initial Stored Volume ....         0.000         0.000
  Final Stored Volume ......         0.636         6.364
  Continuity Error (%) .....        12.895
  
  
  *************************
  Highest Continuity Errors
  *************************
  Node T2 (35.44%)
  Node T5 (32.20%)
  Node T4 (24.64%)
  Node T3 (21.20%)
  Node T6 (20.25%)
  
  
  ***************************
  Time-Step Critical Elements
  ***************************
  None
  
  
  ********************************
  Highest Flow Instability Indexes
  ********************************
  All links are stable.
  
  
  *************************
  Routing Time Step Summary
  *************************
  Minimum Time Step           :     4.50 sec
  Average Time Step           :     5.00 sec
  Maximum Time Step           :     5.00 sec
  Percent in Steady State     :     0.00
  Average Iterations per Step :     2.15
  Percent Not Converging      :     0.60
  
  
  ***************************
  Subcatchment Runoff Summary
  ***************************
  
  ------------------------------------------------------------------------------------------------------------------------------
                            Total      Total      Total      Total     Imperv       Perv      Total       Total     Peak  Runoff
                           Precip      Runon       Evap      Infil     Runoff     Runoff     Runoff      Runoff   Runoff   Coeff
  Subcatchment                 mm         mm         mm         mm         mm         mm         mm    10^6 ltr      CMS
  ------------------------------------------------------------------------------------------------------------------------------
  SC01                       6.37       0.00       0.00       0.00       6.28       0.00       6.28        2.07     0.62   0.986
  SC02                       6.37       0.00       0.00       0.00       6.28       0.00       6.28        1.43     0.42   0.986
  SC03                       6.37       0.00       0.00       0.00       6.30       0.00       6.30        1.13     0.36   0.989
  SC04                       6.37       0.00       0.00       0.00       6.17       0.00       6.17        0.43     0.11   0.969
  SC05                       6.37       0.00       0.00       0.00       6.28       0.00       6.28        0.98     0.29   0.986
  SC06                       6.37       0.00       0.00       0.00       6.12       0.00       6.12        1.99     0.47   0.961
  SC07                       6.37       0.00       0.00       0.00       6.18       0.00       6.18        0.29     0.07   0.970
  SC08                       6.37       0.00       0.00       0.00       6.25       0.00       6.25        1.75     0.49   0.982
  SC09                       6.37       0.00       0.00       0.00       6.23       0.00       6.23        0.43     0.11   0.978
  SC010                      6.37       0.00       0.00       0.00       6.26       0.00       6.26        0.74     0.21   0.982
  
  
  ******************
  Node Depth Summary
  ******************
  
  ---------------------------------------------------------------------------------
                                 Average  Maximum  Maximum  Time of Max    Reported
                                   Depth    Depth      HGL   Occurrence   Max Depth
  Node                 Type       Meters   Meters   Meters  days hr:min      Meters
  ---------------------------------------------------------------------------------
  J1                   JUNCTION     0.07     0.18    34.18     0  03:01        0.18
  J3                   JUNCTION     0.08     0.12    18.12     0  05:34        0.12
  CSO7                 JUNCTION     0.13     1.20    35.20     0  02:56        1.20
  J5                   JUNCTION     0.06     0.14    32.14     0  03:01        0.14
  CSO9                 JUNCTION     0.14     1.90    41.90     0  03:01        1.89
  J8                   JUNCTION     0.11     0.25    36.25     0  03:01        0.25
  CSO8                 JUNCTION     0.16     2.00    34.00     0  03:00        2.00
  J10                  JUNCTION     0.09     0.27    29.27     0  03:01        0.27
  J13                  JUNCTION     0.06     0.18    29.18     0  03:01        0.18
  J15                  JUNCTION     0.15     0.32    15.32     0  03:02        0.32
  J16                  JUNCTION     0.07     0.19    30.19     0  03:01        0.19
  CSO10                JUNCTION     0.12     1.00    31.00     0  02:59        1.00
  J12                  JUNCTION     0.13     0.30    26.30     0  03:03        0.30
  J4                   JUNCTION     0.14     1.22    34.22     0  02:56        0.77
  J6                   JUNCTION     0.05     0.07    25.07     0  05:04        0.07
  J2                   JUNCTION     0.00     0.00    25.00     0  00:00        0.00
  J19                  JUNCTION     0.13     0.17     8.17     0  03:08        0.17
  J9                   JUNCTION     0.07     0.11    29.11     0  04:18        0.11
  J14                  JUNCTION     0.10     0.14    20.14     0  06:03        0.14
  J17                  JUNCTION     0.05     0.07    20.07     0  04:45        0.07
  J7                   JUNCTION     0.08     0.22    39.22     0  03:02        0.22
  J11                  JUNCTION     0.10     0.29    31.29     0  03:01        0.29
  J18                  JUNCTION     0.05     0.16    29.16     0  03:01        0.16
  Out_to_WWTP          OUTFALL      0.13     0.17     6.17     0  03:54        0.17
  T5                   STORAGE      3.50     5.00    32.00     0  03:09        5.00
  T4                   STORAGE      2.74     4.23    31.23     0  05:02        4.23
  T6                   STORAGE      3.48     5.00    36.00     0  03:00        5.00
  T3                   STORAGE      2.44     3.75    25.75     0  05:59        3.75
  T2                   STORAGE      2.50     3.74    24.74     0  04:43        3.74
  T1                   STORAGE      2.84     5.00    15.00     0  03:07        5.00
  
  
  *******************
  Node Inflow Summary
  *******************
  
  -------------------------------------------------------------------------------------------------
                                  Maximum  Maximum                  Lateral       Total        Flow
                                  Lateral    Total  Time of Max      Inflow      Inflow     Balance
                                   Inflow   Inflow   Occurrence      Volume      Volume       Error
  Node                 Type           CMS      CMS  days hr:min    10^6 ltr    10^6 ltr     Percent
  -------------------------------------------------------------------------------------------------
  J1                   JUNCTION     0.312    0.312     0  03:01        1.54        1.54       0.056
  J3                   JUNCTION     0.000    0.133     0  05:31           0        2.43       1.270
  CSO7                 JUNCTION     0.085    0.085     0  03:01       0.584       0.584       0.077
  J5                   JUNCTION     0.111    0.182     0  03:01       0.554        1.13       0.162
  CSO9                 JUNCTION     0.123    0.123     0  03:01       0.626       0.626       0.073
  J8                   JUNCTION     0.506    0.618     0  03:01        2.93        3.56       0.177
  CSO8                 JUNCTION     0.498    0.498     0  03:01        2.04        2.04       0.027
  J10                  JUNCTION     0.379    0.841     0  03:01        1.52        3.56       0.140
  J13                  JUNCTION     0.441    0.441     0  03:01         1.9         1.9      -0.153
  J15                  JUNCTION     0.000    0.955     0  03:01           0        6.43       1.071
  J16                  JUNCTION     0.645    0.645     0  03:01        2.63        2.63      -0.017
  CSO10                JUNCTION     0.212    0.212     0  03:01       0.874       0.874       0.040
  J12                  JUNCTION     0.000    0.886     0  03:01           0        4.95       0.459
  J4                   JUNCTION     0.000    0.072     0  02:56           0        0.58       0.578
  J6                   JUNCTION     0.000    0.026     0  05:02           0       0.473       0.740
  J2                   JUNCTION     0.000    0.000     0  00:00           0           0       0.000 ltr
  J19                  JUNCTION     0.000    0.271     0  03:07           0        5.08       0.206
  J9                   JUNCTION     0.000    0.075     0  03:00           0        1.42       1.473
  J14                  JUNCTION     0.000    0.107     0  05:59           0        1.97       0.314
  J17                  JUNCTION     0.000    0.029     0  04:43           0       0.534       1.297
  J7                   JUNCTION     0.000    0.122     0  03:01           0       0.625       0.507
  J11                  JUNCTION     0.000    0.485     0  03:01           0        2.04       0.300
  J18                  JUNCTION     0.000    0.202     0  03:01           0       0.873       0.079
  Out_to_WWTP          OUTFALL      0.000    0.271     0  03:08           0        5.07       0.000
  T5                   STORAGE      0.000    0.306     0  03:01           0        1.54      47.499
  T4                   STORAGE      0.000    0.179     0  03:01           0        1.13      32.688
  T6                   STORAGE      0.000    0.602     0  03:02           0        3.55      25.400
  T3                   STORAGE      0.000    0.853     0  03:03           0        4.93      26.910
  T2                   STORAGE      0.000    0.432     0  03:01           0         1.9      54.883
  T1                   STORAGE      0.000    0.896     0  03:02           0        6.36       8.740
  
  
  **********************
  Node Surcharge Summary
  **********************
  
  Surcharging occurs when water rises above the top of the highest conduit.
  ---------------------------------------------------------------------
                                               Max. Height   Min. Depth
                                   Hours       Above Crown    Below Rim
  Node                 Type      Surcharged         Meters       Meters
  ---------------------------------------------------------------------
  CSO7                 JUNCTION        0.32          0.945        0.000
  CSO9                 JUNCTION        0.35          1.579        0.103
  CSO8                 JUNCTION        0.31          1.547        0.000
  CSO10                JUNCTION        0.12          0.560        0.000
  J4                   JUNCTION        0.29          0.922        0.778
  
  
  *********************
  Node Flooding Summary
  *********************
  
  Flooding refers to all water that overflows a node, whether it ponds or not.
  --------------------------------------------------------------------------
                                                             Total   Maximum
                                 Maximum   Time of Max       Flood    Ponded
                        Hours       Rate    Occurrence      Volume     Depth
  Node                 Flooded       CMS   days hr:min    10^6 ltr    Meters
  --------------------------------------------------------------------------
  CSO7                    0.15     0.014      0  03:01       0.004     0.000
  CSO8                    0.02     0.013      0  03:01       0.000     0.000
  CSO10                   0.03     0.010      0  03:01       0.001     0.000
  T5                      4.67     0.170      0  03:09       0.544     0.000
  T6                      2.09     0.527      0  03:02       0.901     0.000
  T1                      0.63     0.527      0  03:07       0.356     0.000
  
  
  **********************
  Storage Volume Summary
  **********************
  
  --------------------------------------------------------------------------------------------------
                         Average     Avg  Evap Exfil       Maximum     Max    Time of Max    Maximum
                          Volume    Pcnt  Pcnt  Pcnt        Volume    Pcnt     Occurrence    Outflow
  Storage Unit           1000 m3    Full  Loss  Loss       1000 m3    Full    days hr:min        CMS
  --------------------------------------------------------------------------------------------------
  T5                       0.350      70     0     0         0.500     100       0  03:09      0.000
  T4                       0.274      55     0     0         0.423      85       0  05:02      0.026
  T6                       0.418      70     0     0         0.600     100       0  03:00      0.075
  T3                       1.266      49     0     0         1.950      75       0  05:59      0.107
  T2                       0.499      50     0     0         0.748      75       0  04:43      0.029
  T1                       0.398      57     0     0         0.700     100       0  03:07      0.271
  
  
  ***********************
  Outfall Loading Summary
  ***********************
  
  -----------------------------------------------------------
                         Flow       Avg       Max       Total
                         Freq      Flow      Flow      Volume
  Outfall Node           Pcnt       CMS       CMS    10^6 ltr
  -----------------------------------------------------------
  Out_to_WWTP           99.01     0.181     0.271       5.067
  -----------------------------------------------------------
  System                99.01     0.181     0.271       5.067
  
  
  ********************
  Link Flow Summary
  ********************
  
  -----------------------------------------------------------------------------
                                 Maximum  Time of Max   Maximum    Max/    Max/
                                  |Flow|   Occurrence   |Veloc|    Full    Full
  Link                 Type          CMS  days hr:min     m/sec    Flow   Depth
  -----------------------------------------------------------------------------
  C1                   CONDUIT     0.000     0  00:00      0.00    0.00    0.06
  C6                   CONDUIT     0.071     0  03:01      1.29    1.12    0.74
  C2                   CONDUIT     0.026     0  05:04      0.98    0.03    0.16
  C9                   CONDUIT     0.114     0  03:02      1.26    0.39    0.47
  C16                  CONDUIT     0.472     0  03:02      1.74    0.05    0.14
  C3                   CONDUIT     0.107     0  06:00      1.79    0.04    0.13
  C19                  CONDUIT     0.029     0  04:45      0.61    0.01    0.19
  C11                  CONDUIT     0.133     0  05:34      1.49    0.01    0.11
  C20                  CONDUIT     0.632     0  03:01      2.71    0.02    0.13
  C22                  CONDUIT     0.199     0  03:01      1.58    0.09    0.30
  C12                  CONDUIT     0.075     0  04:18      1.09    0.01    0.10
  C17                  CONDUIT     0.812     0  03:01      2.93    0.04    0.14
  C10                  CONDUIT     0.602     0  03:02      1.65    0.06    0.58
  C13                  CONDUIT     0.853     0  03:03      1.31    0.05    0.58
  C18                  CONDUIT     0.432     0  03:01      1.72    0.02    0.54
  C23                  CONDUIT     0.896     0  03:02      1.22    0.10    0.61
  C4                   CONDUIT     0.306     0  03:01      1.97    0.07    0.59
  C7                   CONDUIT     0.179     0  03:01      1.41    0.04    0.57
  C14                  CONDUIT     0.271     0  03:08      2.08    0.02    0.09
  C5                   CONDUIT     0.072     0  02:56      1.41    1.23    1.00
  C8                   CONDUIT     0.122     0  03:01      1.72    1.54    0.84
  C15                  CONDUIT     0.485     0  03:01      3.43    1.54    0.82
  C21                  CONDUIT     0.202     0  03:01      1.83    1.16    0.68
  V4                   ORIFICE     0.026     0  05:02                      0.35
  V5                   ORIFICE     0.000     0  00:00                      0.00
  V1                   ORIFICE     0.271     0  03:07                      1.00
  V6                   ORIFICE     0.075     0  03:00                      0.43
  V3                   ORIFICE     0.107     0  05:59                      0.65
  V2                   ORIFICE     0.029     0  04:43                      0.24
  
  
  ***************************
  Flow Classification Summary
  ***************************
  
  -------------------------------------------------------------------------------------
                      Adjusted    ---------- Fraction of Time in Flow Class ---------- 
                       /Actual         Up    Down  Sub   Sup   Up    Down  Norm  Inlet 
  Conduit               Length    Dry  Dry   Dry   Crit  Crit  Crit  Crit  Ltd   Ctrl  
  -------------------------------------------------------------------------------------
  C1                      1.00   0.30  0.70  0.00  0.00  0.00  0.00  0.00  0.00  0.00
  C6                      1.00   0.00  0.00  0.00  0.06  0.94  0.00  0.00  0.00  0.00
  C2                      1.00   0.30  0.00  0.00  0.00  0.70  0.00  0.00  0.68  0.00
  C9                      1.00   0.00  0.00  0.00  1.00  0.00  0.00  0.00  1.00  0.00
  C16                     1.00   0.00  0.00  0.00  0.57  0.43  0.00  0.00  0.42  0.00
  C3                      1.00   0.30  0.00  0.00  0.00  0.70  0.00  0.00  0.00  0.00
  C19                     1.00   0.00  0.30  0.00  0.70  0.00  0.00  0.00  0.70  0.00
  C11                     1.00   0.00  0.30  0.00  0.14  0.56  0.00  0.00  0.70  0.00
  C20                     1.00   0.00  0.00  0.00  0.53  0.47  0.00  0.00  0.98  0.00
  C22                     1.00   0.00  0.00  0.00  0.71  0.29  0.00  0.00  1.00  0.00
  C12                     1.00   0.00  0.30  0.00  0.20  0.50  0.00  0.00  0.70  0.00
  C17                     1.00   0.00  0.00  0.00  0.38  0.62  0.00  0.00  0.91  0.00
  C10                     1.00   0.00  0.00  0.00  0.97  0.03  0.00  0.00  0.98  0.00
  C13                     1.00   0.00  0.00  0.00  0.88  0.12  0.00  0.00  0.91  0.00
  C18                     1.00   0.00  0.00  0.00  0.95  0.05  0.00  0.00  0.97  0.00
  C23                     1.00   0.00  0.00  0.00  0.81  0.19  0.00  0.00  0.94  0.00
  C4                      1.00   0.00  0.00  0.00  0.97  0.03  0.00  0.00  0.98  0.00
  C7                      1.00   0.00  0.00  0.00  0.95  0.05  0.00  0.00  0.97  0.00
  C14                     1.00   0.00  0.00  0.00  0.00  0.99  0.00  0.00  0.28  0.00
  C5                      1.00   0.00  0.00  0.00  0.89  0.11  0.00  0.00  0.94  0.00
  C8                      1.00   0.00  0.00  0.00  0.08  0.92  0.00  0.00  0.00  0.00
  C15                     1.00   0.00  0.00  0.00  0.00  1.00  0.00  0.00  0.00  0.00
  C21                     1.00   0.00  0.00  0.00  0.00  1.00  0.00  0.00  0.00  0.00
  
  
  *************************
  Conduit Surcharge Summary
  *************************
  
  ----------------------------------------------------------------------------
                                                           Hours        Hours 
                         --------- Hours Full --------   Above Full   Capacity
  Conduit                Both Ends  Upstream  Dnstream   Normal Flow   Limited
  ----------------------------------------------------------------------------
  C6                          0.01      0.29      0.01      0.19         0.01
  C10                         0.01      0.01      5.78      0.01         0.01
  C13                         0.01      0.01      4.93      0.01         0.01
  C18                         0.01      0.01      5.08      0.01         0.01
  C23                         0.01      0.01      5.44      0.01         0.01
  C4                          0.01      0.01      5.98      0.01         0.01
  C7                          0.01      0.01      5.67      0.01         0.01
  C5                          0.32      0.32      0.43      0.38         0.29
  C8                          0.01      0.35      0.01      0.38         0.01
  C15                         0.01      0.31      0.01      0.38         0.01
  C21                         0.01      0.12      0.01      0.12         0.01
  

  Analysis begun on:  Fri Sep  3 19:59:21 2021
  Analysis ended on:  Fri Sep  3 19:59:21 2021
  Total elapsed time: < 1 sec