
  EPA STORM WATER MANAGEMENT MODEL - VERSION 5.1 (Build 5.3.0.dev0)
  --------------------------------------------------------------

  
  *********************************************************
  NOTE: The summary statistics displayed in this report are
  based on results found at every computational time step,  
  not just on results from each reporting time step.
  *********************************************************
  
  ****************
  Analysis Options
  ****************
  Flow Units ............... CMS
  Process Models:
    Rainfall/Runoff ........ YES
    RDII ................... NO
    Snowmelt ............... NO
    Groundwater ............ NO
    Flow Routing ........... YES
    Ponding Allowed ........ YES
    Water Quality .......... NO
  Infiltration Method ...... HORTON
  Flow Routing Method ...... DYNWAVE
  Surcharge Method ......... EXTRAN
  Starting Date ............ 08/28/2015 08:00:00
  Ending Date .............. 08/28/2015 15:50:00
  Antecedent Dry Days ...... 0.0
  Report Time Step ......... 00:01:00
  Wet Time Step ............ 00:01:00
  Dry Time Step ............ 00:01:00
  Routing Time Step ........ 5.00 sec
  Variable Time Step ....... YES
  Maximum Trials ........... 8
  Number of Threads ........ 1
  Head Tolerance ........... 0.001500 m
  
  
  **************************        Volume         Depth
  Runoff Quantity Continuity     hectare-m            mm
  **************************     ---------       -------
  Total Precipitation ......         1.862        10.333
  Evaporation Loss .........         0.000         0.000
  Infiltration Loss ........         0.000         0.000
  Surface Runoff ...........         1.839        10.204
  Final Storage ............         0.023         0.129
  Continuity Error (%) .....        -0.006
  
  
  **************************        Volume        Volume
  Flow Routing Continuity        hectare-m      10^6 ltr
  **************************     ---------     ---------
  Dry Weather Inflow .......         0.396         3.956
  Wet Weather Inflow .......         1.839        18.388
  Groundwater Inflow .......         0.000         0.000
  RDII Inflow ..............         0.000         0.000
  External Inflow ..........         0.000         0.000
  External Outflow .........         0.563         5.629
  Flooding Loss ............         0.644         6.444
  Evaporation Loss .........         0.000         0.000
  Exfiltration Loss ........         0.000         0.000
  Initial Stored Volume ....         0.000         0.000
  Final Stored Volume ......         0.775         7.753
  Continuity Error (%) .....        11.273
  
  
  *************************
  Highest Continuity Errors
  *************************
  Node T2 (31.13%)
  Node T5 (22.92%)
  Node T4 (21.10%)
  Node T3 (20.36%)
  Node T6 (14.02%)
  
  
  ***************************
  Time-Step Critical Elements
  ***************************
  None
  
  
  ********************************
  Highest Flow Instability Indexes
  ********************************
  Link C13 (2)
  
  
  *************************
  Routing Time Step Summary
  *************************
  Minimum Time Step           :     1.50 sec
  Average Time Step           :     5.00 sec
  Maximum Time Step           :     5.00 sec
  Percent in Steady State     :     0.00
  Average Iterations per Step :     2.19
  Percent Not Converging      :     0.57
  
  
  ***************************
  Subcatchment Runoff Summary
  ***************************
  
  ------------------------------------------------------------------------------------------------------------------------------
                            Total      Total      Total      Total     Imperv       Perv      Total       Total     Peak  Runoff
                           Precip      Runon       Evap      Infil     Runoff     Runoff     Runoff      Runoff   Runoff   Coeff
  Subcatchment                 mm         mm         mm         mm         mm         mm         mm    10^6 ltr      CMS
  ------------------------------------------------------------------------------------------------------------------------------
  SC01                      10.33       0.00       0.00       0.00      10.25       0.00      10.25        3.38     0.83   0.992
  SC02                      10.33       0.00       0.00       0.00      10.24       0.00      10.24        2.33     0.56   0.991
  SC03                      10.33       0.00       0.00       0.00      10.26       0.00      10.26        1.85     0.48   0.993
  SC04                      10.33       0.00       0.00       0.00      10.14       0.00      10.14        0.70     0.14   0.981
  SC05                      10.33       0.00       0.00       0.00      10.24       0.00      10.24        1.60     0.38   0.991
  SC06                      10.33       0.00       0.00       0.00      10.09       0.00      10.09        3.28     0.64   0.976
  SC07                      10.33       0.00       0.00       0.00      10.14       0.00      10.14        0.48     0.10   0.982
  SC08                      10.33       0.00       0.00       0.00      10.22       0.00      10.22        2.86     0.66   0.989
  SC09                      10.33       0.00       0.00       0.00      10.19       0.00      10.19        0.70     0.15   0.986
  SC010                     10.33       0.00       0.00       0.00      10.22       0.00      10.22        1.20     0.28   0.989
  
  
  ******************
  Node Depth Summary
  ******************
  
  ---------------------------------------------------------------------------------
                                 Average  Maximum  Maximum  Time of Max    Reported
                                   Depth    Depth      HGL   Occurrence   Max Depth
  Node                 Type       Meters   Meters   Meters  days hr:min      Meters
  ---------------------------------------------------------------------------------
  J1                   JUNCTION     0.08     0.21    34.21     0  02:14        0.21
  J3                   JUNCTION     0.09     0.12    18.12     0  04:42        0.12
  CSO7                 JUNCTION     0.24     1.20    35.20     0  02:02        1.20
  J5                   JUNCTION     0.07     0.16    32.16     0  02:18        0.16
  CSO9                 JUNCTION     0.30     2.00    42.00     0  02:05        2.00
  J8                   JUNCTION     0.12     0.29    36.29     0  02:20        0.29
  CSO8                 JUNCTION     0.32     2.00    34.00     0  02:03        2.00
  J10                  JUNCTION     0.11     0.30    29.30     0  02:13        0.30
  J13                  JUNCTION     0.07     0.20    29.20     0  02:14        0.20
  J15                  JUNCTION     0.17     0.36    15.36     0  02:17        0.36
  J16                  JUNCTION     0.08     0.22    30.22     0  02:14        0.22
  CSO10                JUNCTION     0.19     1.00    31.00     0  02:03        1.00
  J12                  JUNCTION     0.54     0.83    26.83     0  04:36        0.83
  J4                   JUNCTION     0.20     1.33    34.33     0  02:02        0.77
  J6                   JUNCTION     0.05     0.07    25.07     0  03:49        0.07
  J2                   JUNCTION     0.00     0.00    25.00     0  00:00        0.00
  J19                  JUNCTION     0.14     0.17     8.17     0  02:20        0.17
  J9                   JUNCTION     0.08     0.11    29.11     0  03:56        0.11
  J14                  JUNCTION     0.11     0.15    20.15     0  04:32        0.15
  J17                  JUNCTION     0.05     0.08    20.08     0  03:49        0.08
  J7                   JUNCTION     0.09     0.23    39.23     0  02:35        0.23
  J11                  JUNCTION     0.11     0.30    31.30     0  02:36        0.30
  J18                  JUNCTION     0.06     0.16    29.16     0  02:36        0.16
  Out_to_WWTP          OUTFALL      0.14     0.17     6.17     0  04:01        0.17
  T5                   STORAGE      3.80     5.00    32.00     0  02:23        5.00
  T4                   STORAGE      3.50     5.00    32.00     0  03:00        5.00
  T6                   STORAGE      3.72     5.00    36.00     0  02:19        5.00
  T3                   STORAGE      3.38     4.84    26.84     0  04:31        4.84
  T2                   STORAGE      3.56     5.00    26.00     0  02:52        5.00
  T1                   STORAGE      3.37     5.00    15.00     0  02:19        5.00
  
  
  *******************
  Node Inflow Summary
  *******************
  
  -------------------------------------------------------------------------------------------------
                                  Maximum  Maximum                  Lateral       Total        Flow
                                  Lateral    Total  Time of Max      Inflow      Inflow     Balance
                                   Inflow   Inflow   Occurrence      Volume      Volume       Error
  Node                 Type           CMS      CMS  days hr:min    10^6 ltr    10^6 ltr     Percent
  -------------------------------------------------------------------------------------------------
  J1                   JUNCTION     0.405    0.405     0  02:14        2.16        2.16       0.033
  J3                   JUNCTION     0.000    0.150     0  04:32           0        3.01       1.132
  CSO7                 JUNCTION     0.110    0.110     0  02:18       0.772       0.772       0.059
  J5                   JUNCTION     0.149    0.220     0  02:18       0.827        1.52       0.111
  CSO9                 JUNCTION     0.162    0.162     0  02:16       0.899       0.899       0.044
  J8                   JUNCTION     0.673    0.801     0  02:20        4.23        5.08       0.116
  CSO8                 JUNCTION     0.667    0.667     0  02:15        3.15        3.15       0.013
  J10                  JUNCTION     0.489    0.976     0  02:12        2.23        5.18      -0.004
  J13                  JUNCTION     0.579    0.579     0  02:14         2.8         2.8      -0.151
  J15                  JUNCTION     0.000    1.160     0  02:14           0        8.82       0.824
  J16                  JUNCTION     0.846    0.846     0  02:14        3.94        3.94      -0.026
  CSO10                JUNCTION     0.283    0.283     0  02:15        1.34        1.34       0.019
  J12                  JUNCTION     0.000    1.037     0  02:14           0        6.94       8.113
  J4                   JUNCTION     0.000    0.075     0  02:02           0       0.699       0.471
  J6                   JUNCTION     0.000    0.028     0  03:01           0       0.565       0.661
  J2                   JUNCTION     0.000    0.000     0  00:00           0           0       0.000 ltr
  J19                  JUNCTION     0.000    0.271     0  02:19           0        5.64       0.197
  J9                   JUNCTION     0.000    0.075     0  02:19           0        1.56       1.404
  J14                  JUNCTION     0.000    0.122     0  04:31           0        2.45       0.278
  J17                  JUNCTION     0.000    0.033     0  02:52           0       0.676       1.186
  J7                   JUNCTION     0.000    0.127     0  02:35           0       0.861       0.363
  J11                  JUNCTION     0.000    0.486     0  02:36           0        2.95       0.215
  J18                  JUNCTION     0.000    0.202     0  02:36           0        1.25       0.041
  Out_to_WWTP          OUTFALL      0.000    0.271     0  02:20           0        5.63       0.000
  T5                   STORAGE      0.000    0.405     0  02:14           0        2.16      29.738
  T4                   STORAGE      0.000    0.220     0  02:18           0        1.52      26.742
  T6                   STORAGE      0.000    0.800     0  02:20           0        5.08      16.304
  T3                   STORAGE      0.000    1.029     0  02:16           0        6.42      25.559
  T2                   STORAGE      0.000    0.579     0  02:14           0         2.8      45.204
  T1                   STORAGE      0.000    1.143     0  02:17           0        8.75       7.184
  
  
  **********************
  Node Surcharge Summary
  **********************
  
  Surcharging occurs when water rises above the top of the highest conduit.
  ---------------------------------------------------------------------
                                               Max. Height   Min. Depth
                                   Hours       Above Crown    Below Rim
  Node                 Type      Surcharged         Meters       Meters
  ---------------------------------------------------------------------
  CSO7                 JUNCTION        1.14          0.945        0.000
  CSO9                 JUNCTION        1.17          1.682        0.000
  CSO8                 JUNCTION        1.15          1.547        0.000
  CSO10                JUNCTION        0.80          0.560        0.000
  J4                   JUNCTION        1.12          1.033        0.667
  
  
  *********************
  Node Flooding Summary
  *********************
  
  Flooding refers to all water that overflows a node, whether it ponds or not.
  --------------------------------------------------------------------------
                                                             Total   Maximum
                                 Maximum   Time of Max       Flood    Ponded
                        Hours       Rate    Occurrence      Volume     Depth
  Node                 Flooded       CMS   days hr:min    10^6 ltr    Meters
  --------------------------------------------------------------------------
  CSO7                    0.94     0.038      0  02:18       0.073     0.000
  CSO9                    0.50     0.035      0  02:16       0.038     0.000
  CSO8                    0.54     0.181      0  02:15       0.204     0.000
  CSO10                   0.56     0.080      0  02:15       0.092     0.000
  T5                      5.44     0.361      0  02:23       1.164     0.000
  T4                      1.75     0.132      0  03:00       0.195     0.000
  T6                      2.74     0.724      0  02:20       2.299     0.000
  T2                      1.39     0.266      0  02:52       0.339     0.000
  T1                      1.49     0.871      0  02:19       2.040     0.000
  
  
  **********************
  Storage Volume Summary
  **********************
  
  --------------------------------------------------------------------------------------------------
                         Average     Avg  Evap Exfil       Maximum     Max    Time of Max    Maximum
                          Volume    Pcnt  Pcnt  Pcnt        Volume    Pcnt     Occurrence    Outflow
  Storage Unit           1000 m3    Full  Loss  Loss       1000 m3    Full    days hr:min        CMS
  --------------------------------------------------------------------------------------------------
  T5                       0.380      76     0     0         0.500     100       0  02:23      0.000
  T4                       0.350      70     0     0         0.500     100       0  03:00      0.028
  T6                       0.447      74     0     0         0.600     100       0  02:19      0.075
  T3                       1.757      68     0     0         2.515      97       0  04:31      0.267
  T2                       0.712      71     0     0         1.000     100       0  02:52      0.033
  T1                       0.471      67     0     0         0.700     100       0  02:19      0.271
  
  
  ***********************
  Outfall Loading Summary
  ***********************
  
  -----------------------------------------------------------
                         Flow       Avg       Max       Total
                         Freq      Flow      Flow      Volume
  Outfall Node           Pcnt       CMS       CMS    10^6 ltr
  -----------------------------------------------------------
  Out_to_WWTP           99.01     0.202     0.271       5.628
  -----------------------------------------------------------
  System                99.01     0.202     0.271       5.628
  
  
  ********************
  Link Flow Summary
  ********************
  
  -----------------------------------------------------------------------------
                                 Maximum  Time of Max   Maximum    Max/    Max/
                                  |Flow|   Occurrence   |Veloc|    Full    Full
  Link                 Type          CMS  days hr:min     m/sec    Flow   Depth
  -----------------------------------------------------------------------------
  C1                   CONDUIT     0.000     0  00:00      0.00    0.00    0.06
  C6                   CONDUIT     0.071     0  02:18      1.29    1.14    0.76
  C2                   CONDUIT     0.028     0  03:49      0.96    0.03    0.16
  C9                   CONDUIT     0.127     0  02:35      1.29    0.43    0.52
  C16                  CONDUIT     0.489     0  02:10      1.78    0.05    0.15
  C3                   CONDUIT     0.121     0  04:32      1.87    0.05    0.14
  C19                  CONDUIT     0.033     0  03:49      0.65    0.01    0.21
  C11                  CONDUIT     0.149     0  04:42      1.55    0.01    0.11
  C20                  CONDUIT     0.846     0  02:14      3.04    0.03    0.15
  C22                  CONDUIT     0.202     0  02:36      1.64    0.09    0.33
  C12                  CONDUIT     0.075     0  03:55      0.48    0.01    0.24
  C17                  CONDUIT     0.973     0  02:13      3.09    0.05    0.23
  C10                  CONDUIT     0.800     0  02:20      1.65    0.08    0.60
  C13                  CONDUIT     1.029     0  02:16      1.31    0.06    0.71
  C18                  CONDUIT     0.579     0  02:14      1.72    0.02    0.55
  C23                  CONDUIT     1.143     0  02:17      1.39    0.13    0.62
  C4                   CONDUIT     0.405     0  02:14      1.97    0.10    0.61
  C7                   CONDUIT     0.220     0  02:18      1.41    0.05    0.58
  C14                  CONDUIT     0.271     0  02:20      2.08    0.02    0.09
  C5                   CONDUIT     0.075     0  02:02      1.46    1.28    1.00
  C8                   CONDUIT     0.127     0  02:35      1.76    1.60    0.86
  C15                  CONDUIT     0.486     0  02:36      3.43    1.55    0.83
  C21                  CONDUIT     0.202     0  02:36      1.83    1.16    0.69
  V4                   ORIFICE     0.028     0  03:01                      0.35
  V5                   ORIFICE     0.000     0  00:00                      0.00
  V1                   ORIFICE     0.271     0  02:19                      1.00
  V6                   ORIFICE     0.075     0  02:19                      0.43
  V3                   ORIFICE     0.122     0  04:31                      0.65
  V2                   ORIFICE     0.033     0  02:52                      0.24
  
  
  ***************************
  Flow Classification Summary
  ***************************
  
  -------------------------------------------------------------------------------------
                      Adjusted    ---------- Fraction of Time in Flow Class ---------- 
                       /Actual         Up    Down  Sub   Sup   Up    Down  Norm  Inlet 
  Conduit               Length    Dry  Dry   Dry   Crit  Crit  Crit  Crit  Ltd   Ctrl  
  -------------------------------------------------------------------------------------
  C1                      1.00   0.24  0.76  0.00  0.00  0.00  0.00  0.00  0.00  0.00
  C6                      1.00   0.00  0.00  0.00  0.17  0.83  0.00  0.00  0.00  0.00
  C2                      1.00   0.23  0.00  0.00  0.00  0.77  0.00  0.00  0.75  0.00
  C9                      1.00   0.00  0.00  0.00  1.00  0.00  0.00  0.00  1.00  0.00
  C16                     1.00   0.00  0.00  0.00  0.57  0.43  0.00  0.00  0.48  0.00
  C3                      1.00   0.23  0.00  0.00  0.00  0.77  0.00  0.00  0.00  0.00
  C19                     1.00   0.00  0.23  0.00  0.77  0.00  0.00  0.00  0.77  0.00
  C11                     1.00   0.00  0.24  0.00  0.18  0.58  0.00  0.00  0.76  0.00
  C20                     1.00   0.00  0.00  0.00  0.55  0.45  0.00  0.00  0.98  0.00
  C22                     1.00   0.00  0.00  0.00  0.72  0.28  0.00  0.00  1.00  0.00
  C12                     1.00   0.00  0.23  0.00  0.77  0.00  0.00  0.00  0.77  0.00
  C17                     1.00   0.00  0.00  0.00  0.62  0.38  0.00  0.00  0.91  0.00
  C10                     1.00   0.00  0.00  0.00  0.97  0.03  0.00  0.00  0.98  0.00
  C13                     1.00   0.00  0.00  0.00  0.86  0.14  0.00  0.00  0.27  0.00
  C18                     1.00   0.00  0.00  0.00  0.95  0.05  0.00  0.00  0.97  0.00
  C23                     1.00   0.00  0.00  0.00  0.82  0.18  0.00  0.00  0.94  0.00
  C4                      1.00   0.00  0.00  0.00  0.97  0.03  0.00  0.00  0.98  0.00
  C7                      1.00   0.00  0.00  0.00  0.95  0.05  0.00  0.00  0.97  0.00
  C14                     1.00   0.00  0.00  0.00  0.00  0.99  0.00  0.00  0.23  0.00
  C5                      1.00   0.00  0.00  0.00  0.90  0.10  0.00  0.00  0.83  0.00
  C8                      1.00   0.00  0.00  0.00  0.18  0.82  0.00  0.00  0.00  0.00
  C15                     1.00   0.00  0.00  0.00  0.00  1.00  0.00  0.00  0.00  0.00
  C21                     1.00   0.00  0.00  0.00  0.01  0.99  0.00  0.00  0.00  0.00
  
  
  *************************
  Conduit Surcharge Summary
  *************************
  
  ----------------------------------------------------------------------------
                                                           Hours        Hours 
                         --------- Hours Full --------   Above Full   Capacity
  Conduit                Both Ends  Upstream  Dnstream   Normal Flow   Limited
  ----------------------------------------------------------------------------
  C6                          0.01      1.12      0.01      1.02         0.01
  C10                         0.01      0.01      6.06      0.01         0.01
  C13                         0.01      0.01      5.59      0.01         0.01
  C18                         0.01      0.01      5.71      0.01         0.01
  C23                         0.01      0.01      5.96      0.01         0.01
  C4                          0.01      0.01      6.22      0.01         0.01
  C7                          0.01      0.01      5.98      0.01         0.01
  C5                          1.13      1.14      1.23      1.18         1.10
  C8                          0.01      1.17      0.01      1.18         0.01
  C15                         0.01      1.15      0.01      1.21         0.01
  C21                         0.01      0.80      0.01      0.76         0.01
  

  Analysis begun on:  Fri Sep  3 20:15:52 2021
  Analysis ended on:  Fri Sep  3 20:15:52 2021
  Total elapsed time: < 1 sec