
  EPA STORM WATER MANAGEMENT MODEL - VERSION 5.1 (Build 5.3.0.dev0)
  --------------------------------------------------------------

  
  *********************************************************
  NOTE: The summary statistics displayed in this report are
  based on results found at every computational time step,  
  not just on results from each reporting time step.
  *********************************************************
  
  ****************
  Analysis Options
  ****************
  Flow Units ............... CMS
  Process Models:
    Rainfall/Runoff ........ YES
    RDII ................... NO
    Snowmelt ............... NO
    Groundwater ............ NO
    Flow Routing ........... YES
    Ponding Allowed ........ YES
    Water Quality .......... NO
  Infiltration Method ...... HORTON
  Flow Routing Method ...... DYNWAVE
  Surcharge Method ......... EXTRAN
  Starting Date ............ 08/28/2015 08:00:00
  Ending Date .............. 08/28/2015 15:50:00
  Antecedent Dry Days ...... 0.0
  Report Time Step ......... 00:01:00
  Wet Time Step ............ 00:01:00
  Dry Time Step ............ 00:01:00
  Routing Time Step ........ 5.00 sec
  Variable Time Step ....... YES
  Maximum Trials ........... 8
  Number of Threads ........ 1
  Head Tolerance ........... 0.001500 m
  
  
  **************************        Volume         Depth
  Runoff Quantity Continuity     hectare-m            mm
  **************************     ---------       -------
  Total Precipitation ......         0.929         5.157
  Evaporation Loss .........         0.000         0.000
  Infiltration Loss ........         0.000         0.000
  Surface Runoff ...........         0.907         5.032
  Final Storage ............         0.023         0.126
  Continuity Error (%) .....        -0.016
  
  
  **************************        Volume        Volume
  Flow Routing Continuity        hectare-m      10^6 ltr
  **************************     ---------     ---------
  Dry Weather Inflow .......         0.396         3.955
  Wet Weather Inflow .......         0.907         9.067
  Groundwater Inflow .......         0.000         0.000
  RDII Inflow ..............         0.000         0.000
  External Inflow ..........         0.000         0.000
  External Outflow .........         0.501         5.011
  Flooding Loss ............         0.068         0.676
  Evaporation Loss .........         0.000         0.000
  Exfiltration Loss ........         0.000         0.000
  Initial Stored Volume ....         0.000         0.000
  Final Stored Volume ......         0.578         5.778
  Continuity Error (%) .....        11.956
  
  
  *************************
  Highest Continuity Errors
  *************************
  Node T5 (36.85%)
  Node T2 (33.80%)
  Node T6 (23.04%)
  Node T4 (22.76%)
  Node T3 (20.15%)
  
  
  ***************************
  Time-Step Critical Elements
  ***************************
  None
  
  
  ********************************
  Highest Flow Instability Indexes
  ********************************
  All links are stable.
  
  
  *************************
  Routing Time Step Summary
  *************************
  Minimum Time Step           :     4.50 sec
  Average Time Step           :     5.00 sec
  Maximum Time Step           :     5.00 sec
  Percent in Steady State     :     0.00
  Average Iterations per Step :     2.00
  Percent Not Converging      :     0.00
  
  
  ***************************
  Subcatchment Runoff Summary
  ***************************
  
  ------------------------------------------------------------------------------------------------------------------------------
                            Total      Total      Total      Total     Imperv       Perv      Total       Total     Peak  Runoff
                           Precip      Runon       Evap      Infil     Runoff     Runoff     Runoff      Runoff   Runoff   Coeff
  Subcatchment                 mm         mm         mm         mm         mm         mm         mm    10^6 ltr      CMS
  ------------------------------------------------------------------------------------------------------------------------------
  SC01                       5.16       0.00       0.00       0.00       5.07       0.00       5.07        1.67     0.36   0.984
  SC02                       5.16       0.00       0.00       0.00       5.07       0.00       5.07        1.15     0.23   0.983
  SC03                       5.16       0.00       0.00       0.00       5.09       0.00       5.09        0.92     0.25   0.987
  SC04                       5.16       0.00       0.00       0.00       4.97       0.00       4.97        0.34     0.05   0.964
  SC05                       5.16       0.00       0.00       0.00       5.07       0.00       5.07        0.79     0.16   0.983
  SC06                       5.16       0.00       0.00       0.00       4.93       0.00       4.93        1.60     0.22   0.955
  SC07                       5.16       0.00       0.00       0.00       4.97       0.00       4.97        0.24     0.03   0.964
  SC08                       5.16       0.00       0.00       0.00       5.04       0.00       5.04        1.41     0.23   0.978
  SC09                       5.16       0.00       0.00       0.00       5.02       0.00       5.02        0.35     0.05   0.974
  SC010                      5.16       0.00       0.00       0.00       5.05       0.00       5.05        0.59     0.10   0.979
  
  
  ******************
  Node Depth Summary
  ******************
  
  ---------------------------------------------------------------------------------
                                 Average  Maximum  Maximum  Time of Max    Reported
                                   Depth    Depth      HGL   Occurrence   Max Depth
  Node                 Type       Meters   Meters   Meters  days hr:min      Meters
  ---------------------------------------------------------------------------------
  J1                   JUNCTION     0.07     0.14    34.14     0  01:15        0.14
  J3                   JUNCTION     0.08     0.11    18.11     0  06:11        0.11
  CSO7                 JUNCTION     0.10     0.17    34.17     0  03:01        0.17
  J5                   JUNCTION     0.06     0.10    32.10     0  03:01        0.10
  CSO9                 JUNCTION     0.10     0.21    40.21     0  03:01        0.21
  J8                   JUNCTION     0.10     0.18    36.18     0  03:01        0.18
  CSO8                 JUNCTION     0.12     0.31    32.31     0  01:15        0.31
  J10                  JUNCTION     0.09     0.20    29.20     0  01:17        0.20
  J13                  JUNCTION     0.06     0.13    29.13     0  01:15        0.13
  J15                  JUNCTION     0.15     0.23    15.23     0  03:02        0.23
  J16                  JUNCTION     0.06     0.15    30.15     0  01:15        0.15
  CSO10                JUNCTION     0.11     0.27    30.27     0  01:15        0.26
  J12                  JUNCTION     0.13     0.22    26.22     0  03:03        0.22
  J4                   JUNCTION     0.12     0.20    33.20     0  03:03        0.20
  J6                   JUNCTION     0.05     0.07    25.07     0  05:09        0.07
  J2                   JUNCTION     0.00     0.00    25.00     0  00:00        0.00
  J19                  JUNCTION     0.13     0.17     8.17     0  03:33        0.17
  J9                   JUNCTION     0.08     0.11    29.11     0  04:22        0.11
  J14                  JUNCTION     0.10     0.14    20.14     0  07:02        0.14
  J17                  JUNCTION     0.05     0.07    20.07     0  05:01        0.07
  J7                   JUNCTION     0.08     0.15    39.15     0  03:02        0.15
  J11                  JUNCTION     0.09     0.20    31.20     0  03:02        0.20
  J18                  JUNCTION     0.05     0.11    29.11     0  01:17        0.11
  Out_to_WWTP          OUTFALL      0.13     0.17     6.17     0  03:33        0.17
  T5                   STORAGE      3.59     5.00    32.00     0  03:44        5.00
  T4                   STORAGE      2.31     3.36    30.36     0  05:07        3.36
  T6                   STORAGE      3.57     5.00    36.00     0  03:09        5.00
  T3                   STORAGE      2.14     3.15    25.15     0  06:50        3.15
  T2                   STORAGE      2.11     2.96    23.96     0  05:00        2.96
  T1                   STORAGE      2.63     4.49    14.49     0  03:32        4.49
  
  
  *******************
  Node Inflow Summary
  *******************
  
  -------------------------------------------------------------------------------------------------
                                  Maximum  Maximum                  Lateral       Total        Flow
                                  Lateral    Total  Time of Max      Inflow      Inflow     Balance
                                   Inflow   Inflow   Occurrence      Volume      Volume       Error
  Node                 Type           CMS      CMS  days hr:min    10^6 ltr    10^6 ltr     Percent
  -------------------------------------------------------------------------------------------------
  J1                   JUNCTION     0.177    0.177     0  01:15        1.35        1.35       0.029
  J3                   JUNCTION     0.000    0.121     0  06:08           0        2.42       1.183
  CSO7                 JUNCTION     0.045    0.045     0  03:01       0.527       0.527       0.086
  J5                   JUNCTION     0.053    0.095     0  03:01       0.471       0.993       0.151
  CSO9                 JUNCTION     0.058    0.058     0  03:01       0.543       0.543       0.077
  J8                   JUNCTION     0.257    0.311     0  03:01        2.54        3.08       0.167
  CSO8                 JUNCTION     0.238    0.238     0  01:15         1.7         1.7       0.028
  J10                  JUNCTION     0.264    0.438     0  01:15         1.3           3       0.150
  J13                  JUNCTION     0.249    0.249     0  01:15        1.62        1.62      -0.252
  J15                  JUNCTION     0.000    0.488     0  03:01           0        5.87       1.081
  J16                  JUNCTION     0.379    0.379     0  01:15        2.23        2.23      -0.031
  CSO10                JUNCTION     0.103    0.103     0  01:15       0.732       0.732       0.052
  J12                  JUNCTION     0.000    0.435     0  03:01           0        4.52       0.461
  J4                   JUNCTION     0.000    0.045     0  03:01           0       0.526       0.715
  J6                   JUNCTION     0.000    0.023     0  05:07           0       0.463       0.702
  J2                   JUNCTION     0.000    0.000     0  00:00           0           0       0.000 ltr
  J19                  JUNCTION     0.000    0.256     0  03:32           0        5.02       0.195
  J9                   JUNCTION     0.000    0.075     0  03:09           0        1.55       1.288
  J14                  JUNCTION     0.000    0.098     0  06:50           0        1.97       0.299
  J17                  JUNCTION     0.000    0.026     0  05:00           0       0.524       1.179
  J7                   JUNCTION     0.000    0.057     0  03:01           0       0.542       0.601
  J11                  JUNCTION     0.000    0.238     0  01:15           0         1.7       0.377
  J18                  JUNCTION     0.000    0.102     0  01:15           0       0.732       0.092
  Out_to_WWTP          OUTFALL      0.000    0.256     0  03:33           0        5.01       0.000
  T5                   STORAGE      0.000    0.172     0  01:15           0        1.35      58.345
  T4                   STORAGE      0.000    0.094     0  03:01           0       0.992      29.473
  T6                   STORAGE      0.000    0.306     0  03:01           0        3.08      29.940
  T3                   STORAGE      0.000    0.427     0  03:03           0         4.5      25.233
  T2                   STORAGE      0.000    0.243     0  01:15           0        1.62      51.061
  T1                   STORAGE      0.000    0.474     0  03:02           0        5.81       8.141
  
  
  **********************
  Node Surcharge Summary
  **********************
  
  No nodes were surcharged.
  
  
  *********************
  Node Flooding Summary
  *********************
  
  Flooding refers to all water that overflows a node, whether it ponds or not.
  --------------------------------------------------------------------------
                                                             Total   Maximum
                                 Maximum   Time of Max       Flood    Ponded
                        Hours       Rate    Occurrence      Volume     Depth
  Node                 Flooded       CMS   days hr:min    10^6 ltr    Meters
  --------------------------------------------------------------------------
  T5                      4.10     0.040      0  03:44       0.354     0.000
  T6                      1.81     0.191      0  03:09       0.322     0.000
  
  
  **********************
  Storage Volume Summary
  **********************
  
  --------------------------------------------------------------------------------------------------
                         Average     Avg  Evap Exfil       Maximum     Max    Time of Max    Maximum
                          Volume    Pcnt  Pcnt  Pcnt        Volume    Pcnt     Occurrence    Outflow
  Storage Unit           1000 m3    Full  Loss  Loss       1000 m3    Full    days hr:min        CMS
  --------------------------------------------------------------------------------------------------
  T5                       0.359      72     0     0         0.500     100       0  03:44      0.000
  T4                       0.231      46     0     0         0.336      67       0  05:07      0.023
  T6                       0.429      71     0     0         0.600     100       0  03:09      0.075
  T3                       1.115      43     0     0         1.638      63       0  06:50      0.098
  T2                       0.422      42     0     0         0.592      59       0  05:00      0.026
  T1                       0.368      53     0     0         0.628      90       0  03:32      0.256
  
  
  ***********************
  Outfall Loading Summary
  ***********************
  
  -----------------------------------------------------------
                         Flow       Avg       Max       Total
                         Freq      Flow      Flow      Volume
  Outfall Node           Pcnt       CMS       CMS    10^6 ltr
  -----------------------------------------------------------
  Out_to_WWTP           99.01     0.179     0.256       5.011
  -----------------------------------------------------------
  System                99.01     0.179     0.256       5.011
  
  
  ********************
  Link Flow Summary
  ********************
  
  -----------------------------------------------------------------------------
                                 Maximum  Time of Max   Maximum    Max/    Max/
                                  |Flow|   Occurrence   |Veloc|    Full    Full
  Link                 Type          CMS  days hr:min     m/sec    Flow   Depth
  -----------------------------------------------------------------------------
  C1                   CONDUIT     0.000     0  00:00      0.00    0.00    0.06
  C6                   CONDUIT     0.043     0  03:03      1.21    0.68    0.50
  C2                   CONDUIT     0.023     0  05:09      0.92    0.03    0.15
  C9                   CONDUIT     0.056     0  03:02      1.01    0.19    0.33
  C16                  CONDUIT     0.214     0  01:19      1.37    0.02    0.10
  C3                   CONDUIT     0.098     0  06:51      1.75    0.04    0.12
  C19                  CONDUIT     0.026     0  05:01      0.58    0.01    0.15
  C11                  CONDUIT     0.121     0  06:11      1.46    0.01    0.08
  C20                  CONDUIT     0.369     0  01:15      3.11    0.01    0.09
  C22                  CONDUIT     0.096     0  01:18      1.39    0.04    0.21
  C12                  CONDUIT     0.075     0  04:22      1.09    0.01    0.08
  C17                  CONDUIT     0.434     0  01:18      2.70    0.02    0.10
  C10                  CONDUIT     0.306     0  03:01      1.65    0.03    0.56
  C13                  CONDUIT     0.427     0  03:03      1.92    0.03    0.55
  C18                  CONDUIT     0.243     0  01:15      1.72    0.01    0.53
  C23                  CONDUIT     0.474     0  03:02      1.90    0.05    0.58
  C4                   CONDUIT     0.172     0  01:15      1.97    0.04    0.56
  C7                   CONDUIT     0.094     0  03:01      1.41    0.02    0.55
  C14                  CONDUIT     0.256     0  03:33      2.04    0.01    0.08
  C5                   CONDUIT     0.045     0  03:01      1.22    0.76    0.71
  C8                   CONDUIT     0.057     0  03:01      1.30    0.72    0.56
  C15                  CONDUIT     0.238     0  01:15      2.63    0.76    0.55
  C21                  CONDUIT     0.102     0  01:15      1.65    0.58    0.43
  V4                   ORIFICE     0.023     0  05:07                      0.35
  V5                   ORIFICE     0.000     0  00:00                      0.00
  V1                   ORIFICE     0.256     0  03:32                      1.00
  V6                   ORIFICE     0.075     0  03:09                      0.43
  V3                   ORIFICE     0.098     0  06:50                      0.65
  V2                   ORIFICE     0.026     0  05:00                      0.24
  
  
  ***************************
  Flow Classification Summary
  ***************************
  
  -------------------------------------------------------------------------------------
                      Adjusted    ---------- Fraction of Time in Flow Class ---------- 
                       /Actual         Up    Down  Sub   Sup   Up    Down  Norm  Inlet 
  Conduit               Length    Dry  Dry   Dry   Crit  Crit  Crit  Crit  Ltd   Ctrl  
  -------------------------------------------------------------------------------------
  C1                      1.00   0.21  0.79  0.00  0.00  0.00  0.00  0.00  0.00  0.00
  C6                      1.00   0.00  0.00  0.00  0.01  0.99  0.00  0.00  0.00  0.00
  C2                      1.00   0.21  0.00  0.00  0.00  0.79  0.00  0.00  0.77  0.00
  C9                      1.00   0.00  0.00  0.00  1.00  0.00  0.00  0.00  1.00  0.00
  C16                     1.00   0.00  0.00  0.00  0.57  0.43  0.00  0.00  0.47  0.00
  C3                      1.00   0.21  0.00  0.00  0.00  0.79  0.00  0.00  0.00  0.00
  C19                     1.00   0.00  0.21  0.00  0.79  0.00  0.00  0.00  0.79  0.00
  C11                     1.00   0.00  0.21  0.00  0.21  0.58  0.00  0.00  0.79  0.00
  C20                     1.00   0.00  0.00  0.00  0.54  0.46  0.00  0.00  0.96  0.00
  C22                     1.00   0.00  0.00  0.00  0.71  0.29  0.00  0.00  1.00  0.00
  C12                     1.00   0.00  0.21  0.00  0.26  0.52  0.00  0.00  0.78  0.00
  C17                     1.00   0.00  0.00  0.00  0.40  0.60  0.00  0.00  0.93  0.00
  C10                     1.00   0.00  0.00  0.00  0.97  0.03  0.00  0.00  0.98  0.00
  C13                     1.00   0.00  0.00  0.00  0.86  0.14  0.00  0.00  0.90  0.00
  C18                     1.00   0.00  0.00  0.00  0.95  0.05  0.00  0.00  0.97  0.00
  C23                     1.00   0.00  0.00  0.00  0.83  0.17  0.00  0.00  0.93  0.00
  C4                      1.00   0.00  0.00  0.00  0.97  0.03  0.00  0.00  0.98  0.00
  C7                      1.00   0.00  0.00  0.00  0.95  0.05  0.00  0.00  0.97  0.00
  C14                     1.00   0.00  0.00  0.00  0.00  0.99  0.00  0.00  0.35  0.00
  C5                      1.00   0.00  0.00  0.00  0.93  0.07  0.00  0.00  0.97  0.00
  C8                      1.00   0.00  0.00  0.00  0.00  1.00  0.00  0.00  0.00  0.00
  C15                     1.00   0.00  0.00  0.00  0.00  1.00  0.00  0.00  0.00  0.00
  C21                     1.00   0.00  0.00  0.00  0.00  1.00  0.00  0.00  0.00  0.00
  
  
  *************************
  Conduit Surcharge Summary
  *************************
  
  ----------------------------------------------------------------------------
                                                           Hours        Hours 
                         --------- Hours Full --------   Above Full   Capacity
  Conduit                Both Ends  Upstream  Dnstream   Normal Flow   Limited
  ----------------------------------------------------------------------------
  C10                         0.01      0.01      6.20      0.01         0.01
  C13                         0.01      0.01      4.98      0.01         0.01
  C18                         0.01      0.01      5.13      0.01         0.01
  C23                         0.01      0.01      5.96      0.01         0.01
  C4                          0.01      0.01      6.41      0.01         0.01
  C7                          0.01      0.01      6.07      0.01         0.01
  

  Analysis begun on:  Fri Sep  3 20:17:22 2021
  Analysis ended on:  Fri Sep  3 20:17:22 2021
  Total elapsed time: < 1 sec