
  EPA STORM WATER MANAGEMENT MODEL - VERSION 5.1 (Build 5.3.0.dev0)
  --------------------------------------------------------------

  
  *********************************************************
  NOTE: The summary statistics displayed in this report are
  based on results found at every computational time step,  
  not just on results from each reporting time step.
  *********************************************************
  
  ****************
  Analysis Options
  ****************
  Flow Units ............... CMS
  Process Models:
    Rainfall/Runoff ........ YES
    RDII ................... NO
    Snowmelt ............... NO
    Groundwater ............ NO
    Flow Routing ........... YES
    Ponding Allowed ........ YES
    Water Quality .......... NO
  Infiltration Method ...... HORTON
  Flow Routing Method ...... DYNWAVE
  Surcharge Method ......... EXTRAN
  Starting Date ............ 08/28/2015 08:00:00
  Ending Date .............. 08/28/2015 15:50:00
  Antecedent Dry Days ...... 0.0
  Report Time Step ......... 00:01:00
  Wet Time Step ............ 00:01:00
  Dry Time Step ............ 00:01:00
  Routing Time Step ........ 5.00 sec
  Variable Time Step ....... YES
  Maximum Trials ........... 8
  Number of Threads ........ 1
  Head Tolerance ........... 0.001500 m
  
  
  **************************        Volume         Depth
  Runoff Quantity Continuity     hectare-m            mm
  **************************     ---------       -------
  Total Precipitation ......         1.366         7.583
  Evaporation Loss .........         0.000         0.000
  Infiltration Loss ........         0.000         0.000
  Surface Runoff ...........         1.343         7.452
  Final Storage ............         0.024         0.131
  Continuity Error (%) .....        -0.007
  
  
  **************************        Volume        Volume
  Flow Routing Continuity        hectare-m      10^6 ltr
  **************************     ---------     ---------
  Dry Weather Inflow .......         0.396         3.955
  Wet Weather Inflow .......         1.343        13.429
  Groundwater Inflow .......         0.000         0.000
  RDII Inflow ..............         0.000         0.000
  External Inflow ..........         0.000         0.000
  External Outflow .........         0.537         5.366
  Flooding Loss ............         0.291         2.910
  Evaporation Loss .........         0.000         0.000
  Exfiltration Loss ........         0.000         0.000
  Initial Stored Volume ....         0.000         0.000
  Final Stored Volume ......         0.685         6.847
  Continuity Error (%) .....        13.008
  
  
  *************************
  Highest Continuity Errors
  *************************
  Node T2 (35.46%)
  Node T5 (28.68%)
  Node T4 (24.70%)
  Node T3 (21.14%)
  Node T6 (17.85%)
  
  
  ***************************
  Time-Step Critical Elements
  ***************************
  None
  
  
  ********************************
  Highest Flow Instability Indexes
  ********************************
  Link C13 (1)
  
  
  *************************
  Routing Time Step Summary
  *************************
  Minimum Time Step           :     4.50 sec
  Average Time Step           :     5.00 sec
  Maximum Time Step           :     5.00 sec
  Percent in Steady State     :     0.00
  Average Iterations per Step :     2.15
  Percent Not Converging      :     0.73
  
  
  ***************************
  Subcatchment Runoff Summary
  ***************************
  
  ------------------------------------------------------------------------------------------------------------------------------
                            Total      Total      Total      Total     Imperv       Perv      Total       Total     Peak  Runoff
                           Precip      Runon       Evap      Infil     Runoff     Runoff     Runoff      Runoff   Runoff   Coeff
  Subcatchment                 mm         mm         mm         mm         mm         mm         mm    10^6 ltr      CMS
  ------------------------------------------------------------------------------------------------------------------------------
  SC01                       7.58       0.00       0.00       0.00       7.50       0.00       7.50        2.47     0.56   0.989
  SC02                       7.58       0.00       0.00       0.00       7.49       0.00       7.49        1.70     0.38   0.988
  SC03                       7.58       0.00       0.00       0.00       7.51       0.00       7.51        1.35     0.32   0.991
  SC04                       7.58       0.00       0.00       0.00       7.39       0.00       7.39        0.51     0.10   0.974
  SC05                       7.58       0.00       0.00       0.00       7.49       0.00       7.49        1.17     0.26   0.988
  SC06                       7.58       0.00       0.00       0.00       7.34       0.00       7.34        2.39     0.47   0.967
  SC07                       7.58       0.00       0.00       0.00       7.39       0.00       7.39        0.35     0.07   0.974
  SC08                       7.58       0.00       0.00       0.00       7.47       0.00       7.47        2.09     0.46   0.985
  SC09                       7.58       0.00       0.00       0.00       7.44       0.00       7.44        0.51     0.11   0.981
  SC010                      7.58       0.00       0.00       0.00       7.47       0.00       7.47        0.88     0.19   0.985
  
  
  ******************
  Node Depth Summary
  ******************
  
  ---------------------------------------------------------------------------------
                                 Average  Maximum  Maximum  Time of Max    Reported
                                   Depth    Depth      HGL   Occurrence   Max Depth
  Node                 Type       Meters   Meters   Meters  days hr:min      Meters
  ---------------------------------------------------------------------------------
  J1                   JUNCTION     0.08     0.18    34.18     0  03:01        0.18
  J3                   JUNCTION     0.08     0.12    18.12     0  05:01        0.12
  CSO7                 JUNCTION     0.15     1.20    35.20     0  02:46        1.20
  J5                   JUNCTION     0.07     0.14    32.14     0  03:01        0.14
  CSO9                 JUNCTION     0.16     1.63    41.63     0  03:01        1.63
  J8                   JUNCTION     0.11     0.26    36.26     0  03:01        0.26
  CSO8                 JUNCTION     0.19     1.81    33.81     0  03:01        1.81
  J10                  JUNCTION     0.10     0.27    29.27     0  03:01        0.27
  J13                  JUNCTION     0.07     0.17    29.17     0  03:01        0.17
  J15                  JUNCTION     0.16     0.32    15.32     0  03:02        0.32
  J16                  JUNCTION     0.07     0.19    30.19     0  03:01        0.19
  CSO10                JUNCTION     0.13     0.93    30.93     0  03:01        0.93
  J12                  JUNCTION     0.19     0.30    26.30     0  03:02        0.30
  J4                   JUNCTION     0.15     1.12    34.12     0  02:46        0.76
  J6                   JUNCTION     0.05     0.07    25.07     0  04:55        0.07
  J2                   JUNCTION     0.00     0.00    25.00     0  00:00        0.00
  J19                  JUNCTION     0.14     0.17     8.17     0  02:53        0.17
  J9                   JUNCTION     0.08     0.11    29.11     0  04:06        0.11
  J14                  JUNCTION     0.10     0.15    20.15     0  05:08        0.15
  J17                  JUNCTION     0.05     0.07    20.07     0  04:32        0.07
  J7                   JUNCTION     0.09     0.22    39.22     0  03:01        0.22
  J11                  JUNCTION     0.10     0.29    31.29     0  03:01        0.29
  J18                  JUNCTION     0.06     0.16    29.16     0  03:01        0.16
  Out_to_WWTP          OUTFALL      0.13     0.17     6.17     0  04:00        0.17
  T5                   STORAGE      3.63     5.00    32.00     0  02:55        5.00
  T4                   STORAGE      3.17     4.83    31.83     0  04:53        4.83
  T6                   STORAGE      3.60     5.00    36.00     0  02:46        5.00
  T3                   STORAGE      2.84     4.25    26.25     0  05:08        4.25
  T2                   STORAGE      2.95     4.36    25.36     0  04:30        4.36
  T1                   STORAGE      3.11     5.00    15.00     0  02:51        5.00
  
  
  *******************
  Node Inflow Summary
  *******************
  
  -------------------------------------------------------------------------------------------------
                                  Maximum  Maximum                  Lateral       Total        Flow
                                  Lateral    Total  Time of Max      Inflow      Inflow     Balance
                                   Inflow   Inflow   Occurrence      Volume      Volume       Error
  Node                 Type           CMS      CMS  days hr:min    10^6 ltr    10^6 ltr     Percent
  -------------------------------------------------------------------------------------------------
  J1                   JUNCTION     0.285    0.285     0  03:01        1.73        1.73       0.043
  J3                   JUNCTION     0.000    0.141     0  04:59           0        2.72       1.187
  CSO7                 JUNCTION     0.084    0.084     0  03:01       0.641       0.641       0.069
  J5                   JUNCTION     0.109    0.180     0  03:01       0.637        1.27       0.136
  CSO9                 JUNCTION     0.117    0.117     0  03:01        0.71        0.71       0.071
  J8                   JUNCTION     0.511    0.623     0  03:01        3.33        4.03       0.149
  CSO8                 JUNCTION     0.466    0.466     0  03:01        2.38        2.38       0.024
  J10                  JUNCTION     0.332    0.783     0  03:01        1.74        4.11       0.106
  J13                  JUNCTION     0.402    0.402     0  03:01        2.17        2.17      -0.162
  J15                  JUNCTION     0.000    0.914     0  03:01           0        7.33       0.972
  J16                  JUNCTION     0.582    0.582     0  03:01        3.03        3.03      -0.021
  CSO10                JUNCTION     0.198    0.198     0  03:01        1.02        1.02       0.035
  J12                  JUNCTION     0.000    0.843     0  03:01           0        5.59       1.087
  J4                   JUNCTION     0.000    0.071     0  03:01           0       0.636       0.535
  J6                   JUNCTION     0.000    0.028     0  04:53           0       0.528       0.699
  J2                   JUNCTION     0.000    0.000     0  00:00           0           0       0.000 ltr
  J19                  JUNCTION     0.000    0.271     0  02:51           0        5.38       0.201
  J9                   JUNCTION     0.000    0.075     0  02:46           0        1.51       1.399
  J14                  JUNCTION     0.000    0.114     0  05:08           0         2.2       0.295
  J17                  JUNCTION     0.000    0.031     0  04:30           0       0.602       1.212
  J7                   JUNCTION     0.000    0.117     0  03:01           0       0.709       0.444
  J11                  JUNCTION     0.000    0.465     0  03:01           0        2.38       0.261
  J18                  JUNCTION     0.000    0.198     0  03:01           0        1.02       0.061
  Out_to_WWTP          OUTFALL      0.000    0.271     0  02:53           0        5.37       0.000
  T5                   STORAGE      0.000    0.282     0  03:01           0        1.73      40.222
  T4                   STORAGE      0.000    0.179     0  03:01           0        1.27      32.804
  T6                   STORAGE      0.000    0.613     0  03:01           0        4.03      21.723
  T3                   STORAGE      0.000    0.826     0  03:02           0        5.53      26.811
  T2                   STORAGE      0.000    0.397     0  03:01           0        2.18      54.945
  T1                   STORAGE      0.000    0.882     0  03:02           0        7.26       8.247
  
  
  **********************
  Node Surcharge Summary
  **********************
  
  Surcharging occurs when water rises above the top of the highest conduit.
  ---------------------------------------------------------------------
                                               Max. Height   Min. Depth
                                   Hours       Above Crown    Below Rim
  Node                 Type      Surcharged         Meters       Meters
  ---------------------------------------------------------------------
  CSO7                 JUNCTION        0.51          0.945        0.000
  CSO9                 JUNCTION        0.57          1.310        0.372
  CSO8                 JUNCTION        0.48          1.358        0.189
  CSO10                JUNCTION        0.12          0.494        0.066
  J4                   JUNCTION        0.46          0.817        0.883
  
  
  *********************
  Node Flooding Summary
  *********************
  
  Flooding refers to all water that overflows a node, whether it ponds or not.
  --------------------------------------------------------------------------
                                                             Total   Maximum
                                 Maximum   Time of Max       Flood    Ponded
                        Hours       Rate    Occurrence      Volume     Depth
  Node                 Flooded       CMS   days hr:min    10^6 ltr    Meters
  --------------------------------------------------------------------------
  CSO7                    0.27     0.013      0  03:01       0.005     0.000
  T5                      4.90     0.282      0  03:01       0.734     0.000
  T6                      2.33     0.538      0  03:01       1.298     0.000
  T1                      0.95     0.611      0  03:02       0.873     0.000
  
  
  **********************
  Storage Volume Summary
  **********************
  
  --------------------------------------------------------------------------------------------------
                         Average     Avg  Evap Exfil       Maximum     Max    Time of Max    Maximum
                          Volume    Pcnt  Pcnt  Pcnt        Volume    Pcnt     Occurrence    Outflow
  Storage Unit           1000 m3    Full  Loss  Loss       1000 m3    Full    days hr:min        CMS
  --------------------------------------------------------------------------------------------------
  T5                       0.363      73     0     0         0.500     100       0  02:55      0.000
  T4                       0.317      63     0     0         0.483      97       0  04:53      0.028
  T6                       0.431      72     0     0         0.600     100       0  02:46      0.075
  T3                       1.477      57     0     0         2.209      85       0  05:08      0.114
  T2                       0.590      59     0     0         0.871      87       0  04:30      0.031
  T1                       0.435      62     0     0         0.700     100       0  02:51      0.271
  
  
  ***********************
  Outfall Loading Summary
  ***********************
  
  -----------------------------------------------------------
                         Flow       Avg       Max       Total
                         Freq      Flow      Flow      Volume
  Outfall Node           Pcnt       CMS       CMS    10^6 ltr
  -----------------------------------------------------------
  Out_to_WWTP           99.01     0.192     0.271       5.366
  -----------------------------------------------------------
  System                99.01     0.192     0.271       5.366
  
  
  ********************
  Link Flow Summary
  ********************
  
  -----------------------------------------------------------------------------
                                 Maximum  Time of Max   Maximum    Max/    Max/
                                  |Flow|   Occurrence   |Veloc|    Full    Full
  Link                 Type          CMS  days hr:min     m/sec    Flow   Depth
  -----------------------------------------------------------------------------
  C1                   CONDUIT     0.000     0  00:00      0.00    0.00    0.06
  C6                   CONDUIT     0.071     0  03:01      1.29    1.12    0.74
  C2                   CONDUIT     0.028     0  04:55      0.96    0.03    0.16
  C9                   CONDUIT     0.113     0  03:01      1.24    0.39    0.47
  C16                  CONDUIT     0.454     0  03:01      1.73    0.04    0.14
  C3                   CONDUIT     0.114     0  05:09      1.83    0.04    0.13
  C19                  CONDUIT     0.031     0  04:32      0.63    0.01    0.19
  C11                  CONDUIT     0.141     0  05:01      1.52    0.01    0.11
  C20                  CONDUIT     0.576     0  03:01      2.53    0.02    0.13
  C22                  CONDUIT     0.193     0  03:01      1.55    0.09    0.30
  C12                  CONDUIT     0.075     0  04:06      0.84    0.01    0.10
  C17                  CONDUIT     0.768     0  03:01      2.84    0.04    0.14
  C10                  CONDUIT     0.613     0  03:01      1.65    0.06    0.59
  C13                  CONDUIT     0.826     0  03:02      1.31    0.05    0.57
  C18                  CONDUIT     0.397     0  03:01      1.72    0.01    0.54
  C23                  CONDUIT     0.882     0  03:02      1.31    0.10    0.61
  C4                   CONDUIT     0.282     0  03:01      1.97    0.07    0.59
  C7                   CONDUIT     0.179     0  03:01      1.41    0.04    0.57
  C14                  CONDUIT     0.271     0  02:53      2.08    0.02    0.09
  C5                   CONDUIT     0.071     0  03:01      1.38    1.21    1.00
  C8                   CONDUIT     0.117     0  03:01      1.65    1.48    0.84
  C15                  CONDUIT     0.465     0  03:01      3.30    1.48    0.82
  C21                  CONDUIT     0.198     0  03:01      1.79    1.13    0.68
  V4                   ORIFICE     0.028     0  04:53                      0.35
  V5                   ORIFICE     0.000     0  00:00                      0.00
  V1                   ORIFICE     0.271     0  02:51                      1.00
  V6                   ORIFICE     0.075     0  02:46                      0.43
  V3                   ORIFICE     0.114     0  05:08                      0.65
  V2                   ORIFICE     0.031     0  04:30                      0.24
  
  
  ***************************
  Flow Classification Summary
  ***************************
  
  -------------------------------------------------------------------------------------
                      Adjusted    ---------- Fraction of Time in Flow Class ---------- 
                       /Actual         Up    Down  Sub   Sup   Up    Down  Norm  Inlet 
  Conduit               Length    Dry  Dry   Dry   Crit  Crit  Crit  Crit  Ltd   Ctrl  
  -------------------------------------------------------------------------------------
  C1                      1.00   0.26  0.74  0.00  0.00  0.00  0.00  0.00  0.00  0.00
  C6                      1.00   0.00  0.00  0.00  0.09  0.90  0.00  0.00  0.00  0.00
  C2                      1.00   0.26  0.00  0.00  0.00  0.74  0.00  0.00  0.73  0.00
  C9                      1.00   0.00  0.00  0.00  1.00  0.00  0.00  0.00  1.00  0.00
  C16                     1.00   0.00  0.00  0.00  0.56  0.44  0.00  0.00  0.42  0.00
  C3                      1.00   0.26  0.00  0.00  0.00  0.74  0.00  0.00  0.00  0.00
  C19                     1.00   0.00  0.26  0.00  0.74  0.00  0.00  0.00  0.74  0.00
  C11                     1.00   0.00  0.26  0.00  0.17  0.57  0.00  0.00  0.74  0.00
  C20                     1.00   0.00  0.00  0.00  0.54  0.46  0.00  0.00  0.98  0.00
  C22                     1.00   0.00  0.00  0.00  0.70  0.29  0.00  0.00  1.00  0.00
  C12                     1.00   0.00  0.26  0.00  0.74  0.00  0.00  0.00  0.74  0.00
  C17                     1.00   0.00  0.00  0.00  0.51  0.49  0.00  0.00  0.91  0.00
  C10                     1.00   0.00  0.00  0.00  0.97  0.03  0.00  0.00  0.98  0.00
  C13                     1.00   0.00  0.00  0.00  0.86  0.14  0.00  0.00  0.38  0.00
  C18                     1.00   0.00  0.00  0.00  0.95  0.05  0.00  0.00  0.97  0.00
  C23                     1.00   0.00  0.00  0.00  0.81  0.19  0.00  0.00  0.94  0.00
  C4                      1.00   0.00  0.00  0.00  0.97  0.03  0.00  0.00  0.98  0.00
  C7                      1.00   0.00  0.00  0.00  0.95  0.05  0.00  0.00  0.97  0.00
  C14                     1.00   0.00  0.00  0.00  0.00  0.99  0.00  0.00  0.23  0.00
  C5                      1.00   0.00  0.00  0.00  0.90  0.10  0.00  0.00  0.91  0.00
  C8                      1.00   0.00  0.00  0.00  0.13  0.87  0.00  0.00  0.00  0.00
  C15                     1.00   0.00  0.00  0.00  0.00  1.00  0.00  0.00  0.00  0.00
  C21                     1.00   0.00  0.00  0.00  0.00  1.00  0.00  0.00  0.00  0.00
  
  
  *************************
  Conduit Surcharge Summary
  *************************
  
  ----------------------------------------------------------------------------
                                                           Hours        Hours 
                         --------- Hours Full --------   Above Full   Capacity
  Conduit                Both Ends  Upstream  Dnstream   Normal Flow   Limited
  ----------------------------------------------------------------------------
  C6                          0.01      0.46      0.01      0.36         0.01
  C10                         0.01      0.01      5.95      0.01         0.01
  C13                         0.01      0.01      5.21      0.01         0.01
  C18                         0.01      0.01      5.36      0.01         0.01
  C23                         0.01      0.01      5.75      0.01         0.01
  C4                          0.01      0.01      6.14      0.01         0.01
  C7                          0.01      0.01      5.85      0.01         0.01
  C5                          0.51      0.51      0.66      0.62         0.48
  C8                          0.01      0.57      0.01      0.60         0.01
  C15                         0.01      0.48      0.01      0.60         0.01
  C21                         0.01      0.12      0.01      0.14         0.01
  

  Analysis begun on:  Fri Sep  3 20:02:21 2021
  Analysis ended on:  Fri Sep  3 20:02:21 2021
  Total elapsed time: < 1 sec