
  EPA STORM WATER MANAGEMENT MODEL - VERSION 5.1 (Build 5.3.0.dev0)
  --------------------------------------------------------------

  
  *********************************************************
  NOTE: The summary statistics displayed in this report are
  based on results found at every computational time step,  
  not just on results from each reporting time step.
  *********************************************************
  
  ****************
  Analysis Options
  ****************
  Flow Units ............... CMS
  Process Models:
    Rainfall/Runoff ........ YES
    RDII ................... NO
    Snowmelt ............... NO
    Groundwater ............ NO
    Flow Routing ........... YES
    Ponding Allowed ........ YES
    Water Quality .......... NO
  Infiltration Method ...... HORTON
  Flow Routing Method ...... DYNWAVE
  Surcharge Method ......... EXTRAN
  Starting Date ............ 08/28/2015 08:00:00
  Ending Date .............. 08/28/2015 15:50:00
  Antecedent Dry Days ...... 0.0
  Report Time Step ......... 00:01:00
  Wet Time Step ............ 00:01:00
  Dry Time Step ............ 00:01:00
  Routing Time Step ........ 5.00 sec
  Variable Time Step ....... YES
  Maximum Trials ........... 8
  Number of Threads ........ 1
  Head Tolerance ........... 0.001500 m
  
  
  **************************        Volume         Depth
  Runoff Quantity Continuity     hectare-m            mm
  **************************     ---------       -------
  Total Precipitation ......         1.529         8.485
  Evaporation Loss .........         0.000         0.000
  Infiltration Loss ........         0.000         0.000
  Surface Runoff ...........         1.505         8.354
  Final Storage ............         0.024         0.132
  Continuity Error (%) .....        -0.007
  
  
  **************************        Volume        Volume
  Flow Routing Continuity        hectare-m      10^6 ltr
  **************************     ---------     ---------
  Dry Weather Inflow .......         0.396         3.955
  Wet Weather Inflow .......         1.505        15.054
  Groundwater Inflow .......         0.000         0.000
  RDII Inflow ..............         0.000         0.000
  External Inflow ..........         0.000         0.000
  External Outflow .........         0.547         5.472
  Flooding Loss ............         0.385         3.846
  Evaporation Loss .........         0.000         0.000
  Exfiltration Loss ........         0.000         0.000
  Initial Stored Volume ....         0.000         0.000
  Final Stored Volume ......         0.726         7.258
  Continuity Error (%) .....        12.801
  
  
  *************************
  Highest Continuity Errors
  *************************
  Node T2 (35.80%)
  Node T5 (26.50%)
  Node T4 (23.72%)
  Node T3 (20.37%)
  Node T6 (16.41%)
  
  
  ***************************
  Time-Step Critical Elements
  ***************************
  None
  
  
  ********************************
  Highest Flow Instability Indexes
  ********************************
  Link C13 (1)
  
  
  *************************
  Routing Time Step Summary
  *************************
  Minimum Time Step           :     4.50 sec
  Average Time Step           :     5.00 sec
  Maximum Time Step           :     5.00 sec
  Percent in Steady State     :     0.00
  Average Iterations per Step :     2.18
  Percent Not Converging      :     0.67
  
  
  ***************************
  Subcatchment Runoff Summary
  ***************************
  
  ------------------------------------------------------------------------------------------------------------------------------
                            Total      Total      Total      Total     Imperv       Perv      Total       Total     Peak  Runoff
                           Precip      Runon       Evap      Infil     Runoff     Runoff     Runoff      Runoff   Runoff   Coeff
  Subcatchment                 mm         mm         mm         mm         mm         mm         mm    10^6 ltr      CMS
  ------------------------------------------------------------------------------------------------------------------------------
  SC01                       8.49       0.00       0.00       0.00       8.40       0.00       8.40        2.77     0.63   0.990
  SC02                       8.49       0.00       0.00       0.00       8.39       0.00       8.39        1.91     0.43   0.989
  SC03                       8.49       0.00       0.00       0.00       8.42       0.00       8.42        1.51     0.36   0.992
  SC04                       8.49       0.00       0.00       0.00       8.29       0.00       8.29        0.57     0.12   0.977
  SC05                       8.49       0.00       0.00       0.00       8.39       0.00       8.39        1.31     0.30   0.989
  SC06                       8.49       0.00       0.00       0.00       8.24       0.00       8.24        2.68     0.54   0.971
  SC07                       8.49       0.00       0.00       0.00       8.29       0.00       8.29        0.39     0.08   0.977
  SC08                       8.49       0.00       0.00       0.00       8.37       0.00       8.37        2.34     0.51   0.986
  SC09                       8.49       0.00       0.00       0.00       8.34       0.00       8.34        0.58     0.12   0.983
  SC010                      8.49       0.00       0.00       0.00       8.37       0.00       8.37        0.98     0.22   0.987
  
  
  ******************
  Node Depth Summary
  ******************
  
  ---------------------------------------------------------------------------------
                                 Average  Maximum  Maximum  Time of Max    Reported
                                   Depth    Depth      HGL   Occurrence   Max Depth
  Node                 Type       Meters   Meters   Meters  days hr:min      Meters
  ---------------------------------------------------------------------------------
  J1                   JUNCTION     0.08     0.19    34.19     0  03:01        0.19
  J3                   JUNCTION     0.08     0.12    18.12     0  05:02        0.12
  CSO7                 JUNCTION     0.18     1.20    35.20     0  02:36        1.20
  J5                   JUNCTION     0.07     0.15    32.15     0  03:01        0.15
  CSO9                 JUNCTION     0.20     2.00    42.00     0  02:59        2.00
  J8                   JUNCTION     0.12     0.27    36.27     0  03:01        0.27
  CSO8                 JUNCTION     0.23     2.00    34.00     0  02:56        2.00
  J10                  JUNCTION     0.10     0.28    29.28     0  03:01        0.28
  J13                  JUNCTION     0.07     0.18    29.18     0  03:01        0.18
  J15                  JUNCTION     0.17     0.33    15.33     0  03:02        0.33
  J16                  JUNCTION     0.07     0.20    30.20     0  03:01        0.20
  CSO10                JUNCTION     0.15     1.00    31.00     0  02:55        1.00
  J12                  JUNCTION     0.32     0.50    26.50     0  04:55        0.49
  J4                   JUNCTION     0.17     1.11    34.11     0  02:36        0.76
  J6                   JUNCTION     0.05     0.07    25.07     0  04:22        0.07
  J2                   JUNCTION     0.00     0.00    25.00     0  00:00        0.00
  J19                  JUNCTION     0.14     0.17     8.17     0  02:46        0.17
  J9                   JUNCTION     0.08     0.11    29.11     0  04:06        0.11
  J14                  JUNCTION     0.11     0.15    20.15     0  04:51        0.15
  J17                  JUNCTION     0.05     0.07    20.07     0  04:26        0.07
  J7                   JUNCTION     0.09     0.23    39.23     0  03:01        0.23
  J11                  JUNCTION     0.11     0.30    31.30     0  03:00        0.30
  J18                  JUNCTION     0.06     0.16    29.16     0  03:02        0.16
  Out_to_WWTP          OUTFALL      0.14     0.17     6.17     0  04:05        0.17
  T5                   STORAGE      3.68     5.00    32.00     0  02:49        5.00
  T4                   STORAGE      3.34     5.00    32.00     0  03:36        5.00
  T6                   STORAGE      3.64     5.00    36.00     0  02:39        5.00
  T3                   STORAGE      3.03     4.50    26.50     0  05:00        4.50
  T2                   STORAGE      3.29     4.86    25.86     0  04:24        4.86
  T1                   STORAGE      3.21     5.00    15.00     0  02:44        5.00
  
  
  *******************
  Node Inflow Summary
  *******************
  
  -------------------------------------------------------------------------------------------------
                                  Maximum  Maximum                  Lateral       Total        Flow
                                  Lateral    Total  Time of Max      Inflow      Inflow     Balance
                                   Inflow   Inflow   Occurrence      Volume      Volume       Error
  Node                 Type           CMS      CMS  days hr:min    10^6 ltr    10^6 ltr     Percent
  -------------------------------------------------------------------------------------------------
  J1                   JUNCTION     0.318    0.318     0  03:01        1.87        1.87       0.037
  J3                   JUNCTION     0.000    0.145     0  04:52           0        2.81       1.175
  CSO7                 JUNCTION     0.093    0.093     0  03:01       0.684       0.684       0.066
  J5                   JUNCTION     0.123    0.194     0  03:01       0.699        1.36       0.125
  CSO9                 JUNCTION     0.131    0.131     0  03:01       0.772       0.772       0.068
  J8                   JUNCTION     0.575    0.699     0  03:01        3.62        4.39       0.135
  CSO8                 JUNCTION     0.524    0.524     0  03:01        2.64        2.64       0.025
  J10                  JUNCTION     0.371    0.858     0  03:01         1.9        4.52       0.058
  J13                  JUNCTION     0.450    0.450     0  03:01        2.38        2.38      -0.158
  J15                  JUNCTION     0.000    1.002     0  03:01           0        7.85       0.921
  J16                  JUNCTION     0.653    0.653     0  03:01        3.33        3.33      -0.026
  CSO10                JUNCTION     0.222    0.222     0  03:01        1.12        1.12       0.032
  J12                  JUNCTION     0.000    0.923     0  03:01           0        6.25       3.882
  J4                   JUNCTION     0.000    0.071     0  03:01           0       0.668       0.511
  J6                   JUNCTION     0.000    0.028     0  03:36           0       0.542       0.687
  J2                   JUNCTION     0.000    0.000     0  00:00           0           0       0.000 ltr
  J19                  JUNCTION     0.000    0.271     0  02:44           0        5.48       0.201
  J9                   JUNCTION     0.000    0.075     0  02:39           0        1.51       1.399
  J14                  JUNCTION     0.000    0.117     0  05:00           0        2.28       0.290
  J17                  JUNCTION     0.000    0.033     0  04:24           0       0.637       1.200
  J7                   JUNCTION     0.000    0.127     0  03:01           0       0.771       0.407
  J11                  JUNCTION     0.000    0.486     0  03:00           0        2.63       0.239
  J18                  JUNCTION     0.000    0.202     0  03:02           0        1.12       0.050
  Out_to_WWTP          OUTFALL      0.000    0.271     0  02:46           0        5.47       0.000
  T5                   STORAGE      0.000    0.315     0  03:01           0        1.87      36.059
  T4                   STORAGE      0.000    0.193     0  03:01           0        1.36      31.096
  T6                   STORAGE      0.000    0.689     0  03:01           0        4.38      19.638
  T3                   STORAGE      0.000    0.908     0  03:02           0        6.02      25.589
  T2                   STORAGE      0.000    0.446     0  03:01           0        2.38      55.758
  T1                   STORAGE      0.000    0.973     0  03:02           0        7.78       7.972
  
  
  **********************
  Node Surcharge Summary
  **********************
  
  Surcharging occurs when water rises above the top of the highest conduit.
  ---------------------------------------------------------------------
                                               Max. Height   Min. Depth
                                   Hours       Above Crown    Below Rim
  Node                 Type      Surcharged         Meters       Meters
  ---------------------------------------------------------------------
  CSO7                 JUNCTION        0.72          0.945        0.000
  CSO9                 JUNCTION        0.78          1.682        0.000
  CSO8                 JUNCTION        0.68          1.547        0.000
  CSO10                JUNCTION        0.28          0.560        0.000
  J4                   JUNCTION        0.67          0.805        0.895
  
  
  *********************
  Node Flooding Summary
  *********************
  
  Flooding refers to all water that overflows a node, whether it ponds or not.
  --------------------------------------------------------------------------
                                                             Total   Maximum
                                 Maximum   Time of Max       Flood    Ponded
                        Hours       Rate    Occurrence      Volume     Depth
  Node                 Flooded       CMS   days hr:min    10^6 ltr    Meters
  --------------------------------------------------------------------------
  CSO7                    0.46     0.022      0  03:01       0.016     0.000
  CSO9                    0.04     0.004      0  03:01       0.000     0.000
  CSO8                    0.09     0.037      0  03:01       0.006     0.000
  CSO10                   0.12     0.020      0  03:01       0.004     0.000
  T5                      5.02     0.315      0  03:01       0.875     0.000
  T4                      1.26     0.040      0  03:36       0.056     0.000
  T6                      2.47     0.614      0  03:01       1.642     0.000
  T1                      1.13     0.703      0  03:02       1.248     0.000
  
  
  **********************
  Storage Volume Summary
  **********************
  
  --------------------------------------------------------------------------------------------------
                         Average     Avg  Evap Exfil       Maximum     Max    Time of Max    Maximum
                          Volume    Pcnt  Pcnt  Pcnt        Volume    Pcnt     Occurrence    Outflow
  Storage Unit           1000 m3    Full  Loss  Loss       1000 m3    Full    days hr:min        CMS
  --------------------------------------------------------------------------------------------------
  T5                       0.368      74     0     0         0.500     100       0  02:49      0.000
  T4                       0.334      67     0     0         0.500     100       0  03:36      0.028
  T6                       0.437      73     0     0         0.600     100       0  02:39      0.075
  T3                       1.576      61     0     0         2.339      90       0  05:00      0.219
  T2                       0.658      66     0     0         0.972      97       0  04:24      0.033
  T1                       0.450      64     0     0         0.700     100       0  02:44      0.271
  
  
  ***********************
  Outfall Loading Summary
  ***********************
  
  -----------------------------------------------------------
                         Flow       Avg       Max       Total
                         Freq      Flow      Flow      Volume
  Outfall Node           Pcnt       CMS       CMS    10^6 ltr
  -----------------------------------------------------------
  Out_to_WWTP           99.01     0.196     0.271       5.472
  -----------------------------------------------------------
  System                99.01     0.196     0.271       5.472
  
  
  ********************
  Link Flow Summary
  ********************
  
  -----------------------------------------------------------------------------
                                 Maximum  Time of Max   Maximum    Max/    Max/
                                  |Flow|   Occurrence   |Veloc|    Full    Full
  Link                 Type          CMS  days hr:min     m/sec    Flow   Depth
  -----------------------------------------------------------------------------
  C1                   CONDUIT     0.000     0  00:00      0.00    0.00    0.06
  C6                   CONDUIT     0.071     0  03:01      1.29    1.13    0.75
  C2                   CONDUIT     0.028     0  04:22      0.97    0.03    0.16
  C9                   CONDUIT     0.125     0  03:01      1.28    0.43    0.50
  C16                  CONDUIT     0.487     0  03:01      1.76    0.05    0.14
  C3                   CONDUIT     0.117     0  05:01      1.85    0.05    0.14
  C19                  CONDUIT     0.033     0  04:26      0.65    0.01    0.20
  C11                  CONDUIT     0.145     0  05:02      1.53    0.01    0.11
  C20                  CONDUIT     0.647     0  03:01      2.63    0.02    0.13
  C22                  CONDUIT     0.202     0  03:02      1.56    0.09    0.31
  C12                  CONDUIT     0.075     0  04:06      0.58    0.01    0.15
  C17                  CONDUIT     0.848     0  03:01      2.92    0.04    0.15
  C10                  CONDUIT     0.689     0  03:01      1.65    0.07    0.59
  C13                  CONDUIT     0.908     0  03:02      1.31    0.05    0.62
  C18                  CONDUIT     0.446     0  03:01      1.72    0.02    0.54
  C23                  CONDUIT     0.973     0  03:02      1.35    0.11    0.61
  C4                   CONDUIT     0.315     0  03:01      1.97    0.08    0.59
  C7                   CONDUIT     0.193     0  03:01      1.41    0.05    0.57
  C14                  CONDUIT     0.271     0  02:46      2.08    0.02    0.09
  C5                   CONDUIT     0.071     0  03:01      1.38    1.21    1.00
  C8                   CONDUIT     0.127     0  03:01      1.75    1.60    0.86
  C15                  CONDUIT     0.486     0  03:00      3.42    1.55    0.83
  C21                  CONDUIT     0.202     0  03:02      1.82    1.16    0.69
  V4                   ORIFICE     0.028     0  03:36                      0.35
  V5                   ORIFICE     0.000     0  00:00                      0.00
  V1                   ORIFICE     0.271     0  02:44                      1.00
  V6                   ORIFICE     0.075     0  02:39                      0.43
  V3                   ORIFICE     0.117     0  05:00                      0.65
  V2                   ORIFICE     0.033     0  04:24                      0.24
  
  
  ***************************
  Flow Classification Summary
  ***************************
  
  -------------------------------------------------------------------------------------
                      Adjusted    ---------- Fraction of Time in Flow Class ---------- 
                       /Actual         Up    Down  Sub   Sup   Up    Down  Norm  Inlet 
  Conduit               Length    Dry  Dry   Dry   Crit  Crit  Crit  Crit  Ltd   Ctrl  
  -------------------------------------------------------------------------------------
  C1                      1.00   0.26  0.74  0.00  0.00  0.00  0.00  0.00  0.00  0.00
  C6                      1.00   0.00  0.00  0.00  0.12  0.88  0.00  0.00  0.00  0.00
  C2                      1.00   0.26  0.00  0.00  0.00  0.74  0.00  0.00  0.73  0.00
  C9                      1.00   0.00  0.00  0.00  1.00  0.00  0.00  0.00  1.00  0.00
  C16                     1.00   0.00  0.00  0.00  0.56  0.44  0.00  0.00  0.40  0.00
  C3                      1.00   0.26  0.00  0.00  0.00  0.74  0.00  0.00  0.00  0.00
  C19                     1.00   0.00  0.26  0.00  0.74  0.00  0.00  0.00  0.74  0.00
  C11                     1.00   0.00  0.26  0.00  0.18  0.57  0.00  0.00  0.74  0.00
  C20                     1.00   0.00  0.00  0.00  0.54  0.46  0.00  0.00  0.98  0.00
  C22                     1.00   0.00  0.00  0.00  0.70  0.30  0.00  0.00  1.00  0.00
  C12                     1.00   0.00  0.26  0.00  0.74  0.00  0.00  0.00  0.74  0.00
  C17                     1.00   0.00  0.00  0.00  0.57  0.43  0.00  0.00  0.91  0.00
  C10                     1.00   0.00  0.00  0.00  0.97  0.03  0.00  0.00  0.98  0.00
  C13                     1.00   0.00  0.00  0.00  0.86  0.14  0.00  0.00  0.33  0.00
  C18                     1.00   0.00  0.00  0.00  0.95  0.05  0.00  0.00  0.97  0.00
  C23                     1.00   0.00  0.00  0.00  0.82  0.18  0.00  0.00  0.94  0.00
  C4                      1.00   0.00  0.00  0.00  0.97  0.03  0.00  0.00  0.98  0.00
  C7                      1.00   0.00  0.00  0.00  0.95  0.05  0.00  0.00  0.97  0.00
  C14                     1.00   0.00  0.00  0.00  0.00  0.99  0.00  0.00  0.21  0.00
  C5                      1.00   0.00  0.00  0.00  0.90  0.10  0.00  0.00  0.88  0.00
  C8                      1.00   0.00  0.00  0.00  0.16  0.84  0.00  0.00  0.00  0.00
  C15                     1.00   0.00  0.00  0.00  0.00  1.00  0.00  0.00  0.00  0.00
  C21                     1.00   0.00  0.00  0.00  0.00  1.00  0.00  0.00  0.00  0.00
  
  
  *************************
  Conduit Surcharge Summary
  *************************
  
  ----------------------------------------------------------------------------
                                                           Hours        Hours 
                         --------- Hours Full --------   Above Full   Capacity
  Conduit                Both Ends  Upstream  Dnstream   Normal Flow   Limited
  ----------------------------------------------------------------------------
  C6                          0.01      0.67      0.01      0.57         0.01
  C10                         0.01      0.01      6.00      0.01         0.01
  C13                         0.01      0.01      5.31      0.01         0.01
  C18                         0.01      0.01      5.46      0.01         0.01
  C23                         0.01      0.01      5.83      0.01         0.01
  C4                          0.01      0.01      6.18      0.01         0.01
  C7                          0.01      0.01      5.91      0.01         0.01
  C5                          0.72      0.72      0.87      0.83         0.69
  C8                          0.01      0.78      0.01      0.82         0.01
  C15                         0.01      0.68      0.01      0.82         0.01
  C21                         0.01      0.28      0.01      0.30         0.01
  

  Analysis begun on:  Fri Sep  3 20:04:32 2021
  Analysis ended on:  Fri Sep  3 20:04:33 2021
  Total elapsed time: 00:00:01