
  EPA STORM WATER MANAGEMENT MODEL - VERSION 5.1 (Build 5.3.0.dev0)
  --------------------------------------------------------------

  WARNING 09: time series interval greater than recording interval for Rain Gage RG1
  WARNING 09: time series interval greater than recording interval for Rain Gage RG2
  WARNING 09: time series interval greater than recording interval for Rain Gage RG3
  WARNING 09: time series interval greater than recording interval for Rain Gage RG4
  
  *********************************************************
  NOTE: The summary statistics displayed in this report are
  based on results found at every computational time step,  
  not just on results from each reporting time step.
  *********************************************************
  
  ****************
  Analysis Options
  ****************
  Flow Units ............... CMS
  Process Models:
    Rainfall/Runoff ........ YES
    RDII ................... NO
    Snowmelt ............... NO
    Groundwater ............ NO
    Flow Routing ........... YES
    Ponding Allowed ........ YES
    Water Quality .......... NO
  Infiltration Method ...... HORTON
  Flow Routing Method ...... DYNWAVE
  Surcharge Method ......... EXTRAN
  Starting Date ............ 08/28/2015 00:00:00
  Ending Date .............. 08/28/2015 23:50:00
  Antecedent Dry Days ...... 0.0
  Report Time Step ......... 00:01:00
  Wet Time Step ............ 00:01:00
  Dry Time Step ............ 00:01:00
  Routing Time Step ........ 5.00 sec
  Variable Time Step ....... YES
  Maximum Trials ........... 8
  Number of Threads ........ 1
  Head Tolerance ........... 0.001500 m
  
  
  **************************        Volume         Depth
  Runoff Quantity Continuity     hectare-m            mm
  **************************     ---------       -------
  Total Precipitation ......         2.376        13.183
  Evaporation Loss .........         0.000         0.000
  Infiltration Loss ........         0.000         0.000
  Surface Runoff ...........         2.362        13.108
  Final Storage ............         0.015         0.085
  Continuity Error (%) .....        -0.074
  
  
  **************************        Volume        Volume
  Flow Routing Continuity        hectare-m      10^6 ltr
  **************************     ---------     ---------
  Dry Weather Inflow .......         0.759         7.586
  Wet Weather Inflow .......         2.362        23.620
  Groundwater Inflow .......         0.000         0.000
  RDII Inflow ..............         0.000         0.000
  External Inflow ..........         0.000         0.000
  External Outflow .........         1.396        13.965
  Flooding Loss ............         1.003        10.028
  Evaporation Loss .........         0.000         0.000
  Exfiltration Loss ........         0.000         0.000
  Initial Stored Volume ....         0.000         0.000
  Final Stored Volume ......         0.595         5.949
  Continuity Error (%) .....         4.053
  
  
  *************************
  Highest Continuity Errors
  *************************
  Node T2 (18.17%)
  Node T3 (11.11%)
  Node T4 (8.30%)
  Node T5 (5.35%)
  Node T6 (3.82%)
  
  
  ***************************
  Time-Step Critical Elements
  ***************************
  None
  
  
  ********************************
  Highest Flow Instability Indexes
  ********************************
  Link C15 (1)
  
  
  *************************
  Routing Time Step Summary
  *************************
  Minimum Time Step           :     0.41 sec
  Average Time Step           :     5.00 sec
  Maximum Time Step           :     5.00 sec
  Percent in Steady State     :     0.00
  Average Iterations per Step :     2.29
  Percent Not Converging      :     2.03
  
  
  ***************************
  Subcatchment Runoff Summary
  ***************************
  
  ------------------------------------------------------------------------------------------------------------------------------
                            Total      Total      Total      Total     Imperv       Perv      Total       Total     Peak  Runoff
                           Precip      Runon       Evap      Infil     Runoff     Runoff     Runoff      Runoff   Runoff   Coeff
  Subcatchment                 mm         mm         mm         mm         mm         mm         mm    10^6 ltr      CMS
  ------------------------------------------------------------------------------------------------------------------------------
  SC01                      14.09       0.00       0.00       0.00      14.04       0.00      14.04        4.63     0.69   0.996
  SC02                      12.35       0.00       0.00       0.00      12.29       0.00      12.29        2.80     0.38   0.995
  SC03                      12.66       0.00       0.00       0.00      12.62       0.00      12.62        2.27     0.35   0.997
  SC04                      12.35       0.00       0.00       0.00      12.25       0.00      12.25        0.85     0.10   0.992
  SC05                      14.09       0.00       0.00       0.00      14.03       0.00      14.03        2.19     0.32   0.996
  SC06                      13.13       0.00       0.00       0.00      13.00       0.00      13.00        4.23     0.59   0.990
  SC07                      12.35       0.00       0.00       0.00      12.25       0.00      12.25        0.58     0.07   0.992
  SC08                      12.66       0.00       0.00       0.00      12.59       0.00      12.59        3.52     0.44   0.994
  SC09                      13.13       0.00       0.00       0.00      13.04       0.00      13.04        0.90     0.14   0.993
  SC010                     14.09       0.00       0.00       0.00      14.02       0.00      14.02        1.65     0.23   0.995
  
  
  ******************
  Node Depth Summary
  ******************
  
  ---------------------------------------------------------------------------------
                                 Average  Maximum  Maximum  Time of Max    Reported
                                   Depth    Depth      HGL   Occurrence   Max Depth
  Node                 Type       Meters   Meters   Meters  days hr:min      Meters
  ---------------------------------------------------------------------------------
  J1                   JUNCTION     0.05     0.19    34.19     0  10:31        0.19
  J3                   JUNCTION     0.10     0.14    18.14     0  13:38        0.14
  CSO7                 JUNCTION     0.11     1.20    35.20     0  10:10        1.20
  J5                   JUNCTION     0.05     0.14    32.14     0  10:37        0.14
  CSO9                 JUNCTION     0.14     2.00    42.00     0  10:11        2.00
  J8                   JUNCTION     0.08     0.27    36.27     0  10:52        0.27
  CSO8                 JUNCTION     0.11     2.00    34.00     0  09:51        1.89
  J10                  JUNCTION     0.07     0.25    29.25     0  10:02        0.25
  J13                  JUNCTION     0.05     0.16    29.16     0  10:36        0.16
  J15                  JUNCTION     0.14     0.33    15.33     0  10:33        0.33
  J16                  JUNCTION     0.05     0.20    30.20     0  10:31        0.20
  CSO10                JUNCTION     0.10     1.00    31.00     0  10:06        1.00
  J12                  JUNCTION     0.47     1.01    27.01     0  12:00        1.01
  J4                   JUNCTION     0.11     0.83    33.83     0  11:10        0.78
  J6                   JUNCTION     0.05     0.07    25.07     0  12:41        0.07
  J2                   JUNCTION     0.06     0.08    25.08     0  11:24        0.08
  J19                  JUNCTION     0.12     0.17     8.17     0  10:18        0.17
  J9                   JUNCTION     0.08     0.11    29.11     0  12:01        0.11
  J14                  JUNCTION     0.10     0.15    20.15     0  16:15        0.15
  J17                  JUNCTION     0.05     0.08    20.08     0  12:10        0.08
  J7                   JUNCTION     0.06     0.23    39.23     0  10:53        0.23
  J11                  JUNCTION     0.06     0.27    31.27     0  10:12        0.27
  J18                  JUNCTION     0.04     0.16    29.16     0  10:33        0.16
  Out_to_WWTP          OUTFALL      0.12     0.17     6.17     0  14:26        0.17
  T5                   STORAGE      2.32     5.00    32.00     0  10:36        5.00
  T4                   STORAGE      2.50     5.00    32.00     0  11:08        5.00
  T6                   STORAGE      2.41     5.00    36.00     0  10:26        5.00
  T3                   STORAGE      2.81     5.00    27.00     0  11:51        5.00
  T2                   STORAGE      2.69     5.00    26.00     0  11:12        5.00
  T1                   STORAGE      2.61     5.00    15.00     0  10:17        5.00
  
  
  *******************
  Node Inflow Summary
  *******************
  
  -------------------------------------------------------------------------------------------------
                                  Maximum  Maximum                  Lateral       Total        Flow
                                  Lateral    Total  Time of Max      Inflow      Inflow     Balance
                                   Inflow   Inflow   Occurrence      Volume      Volume       Error
  Node                 Type           CMS      CMS  days hr:min    10^6 ltr    10^6 ltr     Percent
  -------------------------------------------------------------------------------------------------
  J1                   JUNCTION     0.343    0.343     0  10:31        3.28        3.28      -0.024
  J3                   JUNCTION     0.000    0.191     0  13:22           0        9.36       0.357
  CSO7                 JUNCTION     0.081    0.081     0  10:36        1.15        1.15       0.005
  J5                   JUNCTION     0.106    0.177     0  10:36        1.09        2.24      -0.007
  CSO9                 JUNCTION     0.145    0.145     0  10:51        1.28        1.28      -0.007
  J8                   JUNCTION     0.627    0.743     0  10:51        6.07        7.35      -0.009
  CSO8                 JUNCTION     0.448    0.448     0  10:01        3.97        3.97      -0.031
  J10                  JUNCTION     0.361    0.716     0  10:01        3.02        6.99      -0.113
  J13                  JUNCTION     0.399    0.399     0  09:56        3.71        3.71      -0.122
  J15                  JUNCTION     0.000    1.026     0  10:31           0        18.6       0.396
  J16                  JUNCTION     0.714    0.714     0  10:31        5.71        5.71      -0.029
  CSO10                JUNCTION     0.238    0.238     0  10:31        1.92        1.92      -0.048
  J12                  JUNCTION     0.000    0.735     0  10:02           0        10.8       1.209
  J4                   JUNCTION     0.000    0.071     0  10:06           0        1.14       0.070
  J6                   JUNCTION     0.000    0.028     0  11:50           0        1.33       0.247
  J2                   JUNCTION     0.000    0.039     0  10:36           0        1.94       0.196
  J19                  JUNCTION     0.000    0.271     0  10:17           0          14       0.075
  J9                   JUNCTION     0.000    0.075     0  10:26           0        3.82       0.260
  J14                  JUNCTION     0.000    0.124     0  13:20           0        6.09       0.115
  J17                  JUNCTION     0.000    0.033     0  11:12           0        1.65       0.365
  J7                   JUNCTION     0.000    0.126     0  10:53           0        1.28       0.068
  J11                  JUNCTION     0.000    0.448     0  10:01           0        3.97       0.024
  J18                  JUNCTION     0.000    0.202     0  10:33           0        1.91      -0.017
  Out_to_WWTP          OUTFALL      0.000    0.271     0  10:19           0          14       0.000
  T5                   STORAGE      0.000    0.320     0  10:31           0        3.28       5.650
  T4                   STORAGE      0.000    0.171     0  10:37           0        2.24       9.053
  T6                   STORAGE      0.000    0.707     0  10:52           0        7.35       3.975
  T3                   STORAGE      0.000    0.720     0  10:08           0        10.7      12.494
  T2                   STORAGE      0.000    0.366     0  10:36           0        3.71      22.200
  T1                   STORAGE      0.000    0.964     0  10:33           0        18.5       2.870
  
  
  **********************
  Node Surcharge Summary
  **********************
  
  Surcharging occurs when water rises above the top of the highest conduit.
  ---------------------------------------------------------------------
                                               Max. Height   Min. Depth
                                   Hours       Above Crown    Below Rim
  Node                 Type      Surcharged         Meters       Meters
  ---------------------------------------------------------------------
  CSO7                 JUNCTION        1.38          0.945        0.000
  CSO9                 JUNCTION        1.44          1.682        0.000
  CSO8                 JUNCTION        1.07          1.547        0.000
  CSO10                JUNCTION        0.88          0.560        0.000
  J4                   JUNCTION        1.20          0.526        1.174
  
  
  *********************
  Node Flooding Summary
  *********************
  
  Flooding refers to all water that overflows a node, whether it ponds or not.
  --------------------------------------------------------------------------
                                                             Total   Maximum
                                 Maximum   Time of Max       Flood    Ponded
                        Hours       Rate    Occurrence      Volume     Depth
  Node                 Flooded       CMS   days hr:min    10^6 ltr    Meters
  --------------------------------------------------------------------------
  CSO7                    0.46     0.010      0  10:36       0.006     0.000
  CSO9                    0.13     0.019      0  10:51       0.002     0.000
  CSO8                    0.01     0.051      0  09:51       0.001     0.000
  CSO10                   0.25     0.038      0  10:51       0.012     0.000
  T5                      2.94     0.263      0  10:56       0.996     0.000
  T4                      2.78     0.129      0  11:08       0.469     0.000
  T6                      3.66     0.631      0  10:52       3.059     0.000
  T3                      3.10     0.348      0  11:51       1.196     0.000
  T2                      2.97     0.250      0  11:32       0.689     0.000
  T1                      3.82     0.693      0  10:33       3.600     0.000
  
  
  **********************
  Storage Volume Summary
  **********************
  
  --------------------------------------------------------------------------------------------------
                         Average     Avg  Evap Exfil       Maximum     Max    Time of Max    Maximum
                          Volume    Pcnt  Pcnt  Pcnt        Volume    Pcnt     Occurrence    Outflow
  Storage Unit           1000 m3    Full  Loss  Loss       1000 m3    Full    days hr:min        CMS
  --------------------------------------------------------------------------------------------------
  T5                       0.232      46     0     0         0.500     100       0  10:36      0.039
  T4                       0.250      50     0     0         0.500     100       0  11:08      0.028
  T6                       0.289      48     0     0         0.600     100       0  10:26      0.075
  T3                       1.460      56     0     0         2.600     100       0  11:51      0.146
  T2                       0.537      54     0     0         1.000     100       0  11:12      0.033
  T1                       0.365      52     0     0         0.700     100       0  10:17      0.271
  
  
  ***********************
  Outfall Loading Summary
  ***********************
  
  -----------------------------------------------------------
                         Flow       Avg       Max       Total
                         Freq      Flow      Flow      Volume
  Outfall Node           Pcnt       CMS       CMS    10^6 ltr
  -----------------------------------------------------------
  Out_to_WWTP           99.43     0.164     0.271      13.965
  -----------------------------------------------------------
  System                99.43     0.164     0.271      13.965
  
  
  ********************
  Link Flow Summary
  ********************
  
  -----------------------------------------------------------------------------
                                 Maximum  Time of Max   Maximum    Max/    Max/
                                  |Flow|   Occurrence   |Veloc|    Full    Full
  Link                 Type          CMS  days hr:min     m/sec    Flow   Depth
  -----------------------------------------------------------------------------
  C1                   CONDUIT     0.039     0  11:24      1.02    0.01    0.11
  C6                   CONDUIT     0.071     0  10:37      1.29    1.12    0.73
  C2                   CONDUIT     0.028     0  12:41      1.00    0.03    0.18
  C9                   CONDUIT     0.122     0  10:53      1.27    0.42    0.50
  C16                  CONDUIT     0.401     0  10:12      1.67    0.04    0.13
  C3                   CONDUIT     0.124     0  13:22      1.82    0.05    0.14
  C19                  CONDUIT     0.033     0  12:10      0.67    0.01    0.20
  C11                  CONDUIT     0.191     0  13:39      1.77    0.01    0.11
  C20                  CONDUIT     0.660     0  10:31      2.83    0.02    0.13
  C22                  CONDUIT     0.200     0  10:33      1.54    0.09    0.31
  C12                  CONDUIT     0.075     0  12:01      0.69    0.01    0.28
  C17                  CONDUIT     0.683     0  10:02      2.78    0.03    0.29
  C10                  CONDUIT     0.707     0  10:52      0.94    0.07    0.59
  C13                  CONDUIT     0.720     0  10:08      0.85    0.04    0.75
  C18                  CONDUIT     0.366     0  10:36      1.01    0.01    0.54
  C23                  CONDUIT     0.964     0  10:33      0.87    0.11    0.61
  C4                   CONDUIT     0.320     0  10:31      1.13    0.08    0.59
  C7                   CONDUIT     0.171     0  10:37      0.83    0.04    0.57
  C14                  CONDUIT     0.271     0  10:19      2.08    0.02    0.09
  C5                   CONDUIT     0.071     0  10:06      1.39    1.22    1.00
  C8                   CONDUIT     0.126     0  10:53      1.77    1.59    0.85
  C15                  CONDUIT     0.448     0  10:01      3.30    1.42    0.80
  C21                  CONDUIT     0.202     0  10:33      1.85    1.16    0.68
  V4                   ORIFICE     0.028     0  11:50                      0.35
  V5                   ORIFICE     0.039     0  10:36                      1.00
  V1                   ORIFICE     0.271     0  10:17                      1.00
  V6                   ORIFICE     0.075     0  10:26                      0.43
  V3                   ORIFICE     0.124     0  13:20                      0.65
  V2                   ORIFICE     0.033     0  11:12                      0.24
  
  
  ***************************
  Flow Classification Summary
  ***************************
  
  -------------------------------------------------------------------------------------
                      Adjusted    ---------- Fraction of Time in Flow Class ---------- 
                       /Actual         Up    Down  Sub   Sup   Up    Down  Norm  Inlet 
  Conduit               Length    Dry  Dry   Dry   Crit  Crit  Crit  Crit  Ltd   Ctrl  
  -------------------------------------------------------------------------------------
  C1                      1.00   0.00  0.00  0.00  0.52  0.48  0.00  0.00  0.96  0.00
  C6                      1.00   0.00  0.00  0.00  0.07  0.93  0.00  0.00  0.00  0.00
  C2                      1.00   0.00  0.00  0.00  0.73  0.27  0.00  0.00  0.98  0.00
  C9                      1.00   0.00  0.00  0.00  1.00  0.00  0.00  0.00  1.00  0.00
  C16                     1.00   0.00  0.20  0.00  0.45  0.36  0.00  0.00  0.37  0.00
  C3                      1.00   0.00  0.00  0.00  0.03  0.96  0.00  0.00  0.26  0.00
  C19                     1.00   0.00  0.00  0.00  1.00  0.00  0.00  0.00  1.00  0.00
  C11                     1.00   0.00  0.00  0.00  0.17  0.83  0.00  0.00  1.00  0.00
  C20                     1.00   0.00  0.00  0.00  0.74  0.26  0.00  0.00  0.99  0.00
  C22                     1.00   0.00  0.00  0.00  0.90  0.10  0.00  0.00  1.00  0.00
  C12                     1.00   0.00  0.00  0.00  0.83  0.17  0.00  0.00  1.00  0.00
  C17                     1.00   0.00  0.00  0.00  0.72  0.28  0.00  0.00  0.99  0.00
  C10                     1.00   0.00  0.00  0.00  0.83  0.17  0.00  0.00  0.98  0.00
  C13                     1.00   0.00  0.00  0.00  0.81  0.19  0.00  0.00  0.38  0.00
  C18                     1.00   0.00  0.00  0.00  0.94  0.06  0.00  0.00  0.98  0.00
  C23                     1.00   0.00  0.00  0.00  0.77  0.23  0.00  0.00  0.96  0.00
  C4                      1.00   0.00  0.00  0.00  0.82  0.18  0.00  0.00  0.98  0.00
  C7                      1.00   0.00  0.00  0.00  0.91  0.09  0.00  0.00  0.97  0.00
  C14                     1.00   0.00  0.00  0.00  0.00  1.00  0.00  0.00  0.20  0.00
  C5                      1.00   0.00  0.00  0.00  0.94  0.06  0.00  0.00  0.93  0.00
  C8                      1.00   0.00  0.00  0.00  0.29  0.71  0.00  0.00  0.01  0.00
  C15                     1.00   0.20  0.00  0.00  0.00  0.80  0.00  0.00  0.01  0.00
  C21                     1.00   0.00  0.00  0.00  0.01  0.99  0.00  0.00  0.00  0.00
  
  
  *************************
  Conduit Surcharge Summary
  *************************
  
  ----------------------------------------------------------------------------
                                                           Hours        Hours 
                         --------- Hours Full --------   Above Full   Capacity
  Conduit                Both Ends  Upstream  Dnstream   Normal Flow   Limited
  ----------------------------------------------------------------------------
  C6                          0.01      1.20      0.01      0.95         0.01
  C10                         0.01      0.01     14.17      0.01         0.01
  C13                         0.01      0.01     13.73      0.01         0.01
  C18                         0.01      0.01     13.76      0.01         0.01
  C23                         0.01      0.01     14.34      0.01         0.01
  C4                          0.01      0.01     14.54      0.01         0.01
  C7                          0.01      0.01     14.14      0.01         0.01
  C5                          1.36      1.38      1.58      1.45         1.29
  C8                          0.01      1.44      0.01      1.42         0.01
  C15                         0.01      1.07      0.01      1.25         0.01
  C21                         0.01      0.89      0.01      0.77         0.01
  

  Analysis begun on:  Mon Sep 20 12:16:59 2021
  Analysis ended on:  Mon Sep 20 12:16:59 2021
  Total elapsed time: < 1 sec