
  EPA STORM WATER MANAGEMENT MODEL - VERSION 5.1 (Build 5.3.0.dev0)
  --------------------------------------------------------------

  
  *********************************************************
  NOTE: The summary statistics displayed in this report are
  based on results found at every computational time step,  
  not just on results from each reporting time step.
  *********************************************************
  
  ****************
  Analysis Options
  ****************
  Flow Units ............... CMS
  Process Models:
    Rainfall/Runoff ........ YES
    RDII ................... NO
    Snowmelt ............... NO
    Groundwater ............ NO
    Flow Routing ........... YES
    Ponding Allowed ........ YES
    Water Quality .......... NO
  Infiltration Method ...... HORTON
  Flow Routing Method ...... DYNWAVE
  Surcharge Method ......... EXTRAN
  Starting Date ............ 08/28/2015 08:00:00
  Ending Date .............. 08/28/2015 15:50:00
  Antecedent Dry Days ...... 0.0
  Report Time Step ......... 00:01:00
  Wet Time Step ............ 00:01:00
  Dry Time Step ............ 00:01:00
  Routing Time Step ........ 5.00 sec
  Variable Time Step ....... YES
  Maximum Trials ........... 8
  Number of Threads ........ 1
  Head Tolerance ........... 0.001500 m
  
  
  **************************        Volume         Depth
  Runoff Quantity Continuity     hectare-m            mm
  **************************     ---------       -------
  Total Precipitation ......         1.687         9.363
  Evaporation Loss .........         0.000         0.000
  Infiltration Loss ........         0.000         0.000
  Surface Runoff ...........         1.664         9.236
  Final Storage ............         0.023         0.128
  Continuity Error (%) .....        -0.007
  
  
  **************************        Volume        Volume
  Flow Routing Continuity        hectare-m      10^6 ltr
  **************************     ---------     ---------
  Dry Weather Inflow .......         0.396         3.955
  Wet Weather Inflow .......         1.664        16.642
  Groundwater Inflow .......         0.000         0.000
  RDII Inflow ..............         0.000         0.000
  External Inflow ..........         0.000         0.000
  External Outflow .........         0.614         6.139
  Flooding Loss ............         0.674         6.735
  Evaporation Loss .........         0.000         0.000
  Exfiltration Loss ........         0.000         0.000
  Initial Stored Volume ....         0.000         0.000
  Final Stored Volume ......         0.624         6.243
  Continuity Error (%) .....         7.189
  
  
  *************************
  Highest Continuity Errors
  *************************
  Node T5 (19.78%)
  Node T3 (16.87%)
  Node T2 (7.48%)
  Node T1 (6.40%)
  Node J12 (5.78%)
  
  
  ***************************
  Time-Step Critical Elements
  ***************************
  None
  
  
  ********************************
  Highest Flow Instability Indexes
  ********************************
  Link C13 (2)
  
  
  *************************
  Routing Time Step Summary
  *************************
  Minimum Time Step           :     4.71 sec
  Average Time Step           :     5.00 sec
  Maximum Time Step           :     5.00 sec
  Percent in Steady State     :     0.00
  Average Iterations per Step :     2.18
  Percent Not Converging      :     0.35
  
  
  ***************************
  Subcatchment Runoff Summary
  ***************************
  
  ------------------------------------------------------------------------------------------------------------------------------
                            Total      Total      Total      Total     Imperv       Perv      Total       Total     Peak  Runoff
                           Precip      Runon       Evap      Infil     Runoff     Runoff     Runoff      Runoff   Runoff   Coeff
  Subcatchment                 mm         mm         mm         mm         mm         mm         mm    10^6 ltr      CMS
  ------------------------------------------------------------------------------------------------------------------------------
  SC01                       9.36       0.00       0.00       0.00       9.28       0.00       9.28        3.06     0.74   0.991
  SC02                       9.36       0.00       0.00       0.00       9.27       0.00       9.27        2.11     0.50   0.990
  SC03                       9.36       0.00       0.00       0.00       9.29       0.00       9.29        1.67     0.43   0.993
  SC04                       9.36       0.00       0.00       0.00       9.17       0.00       9.17        0.63     0.13   0.980
  SC05                       9.36       0.00       0.00       0.00       9.27       0.00       9.27        1.45     0.34   0.990
  SC06                       9.36       0.00       0.00       0.00       9.12       0.00       9.12        2.97     0.55   0.974
  SC07                       9.36       0.00       0.00       0.00       9.18       0.00       9.18        0.44     0.09   0.980
  SC08                       9.36       0.00       0.00       0.00       9.25       0.00       9.25        2.59     0.58   0.988
  SC09                       9.36       0.00       0.00       0.00       9.22       0.00       9.22        0.64     0.14   0.985
  SC010                      9.36       0.00       0.00       0.00       9.25       0.00       9.25        1.09     0.25   0.988
  
  
  ******************
  Node Depth Summary
  ******************
  
  ---------------------------------------------------------------------------------
                                 Average  Maximum  Maximum  Time of Max    Reported
                                   Depth    Depth      HGL   Occurrence   Max Depth
  Node                 Type       Meters   Meters   Meters  days hr:min      Meters
  ---------------------------------------------------------------------------------
  J1                   JUNCTION     0.08     0.20    34.20     0  02:03        0.20
  J3                   JUNCTION     0.14     0.17    18.17     0  03:41        0.17
  CSO7                 JUNCTION     0.22     1.20    35.20     0  01:56        1.20
  J5                   JUNCTION     0.07     0.15    32.15     0  02:08        0.15
  CSO9                 JUNCTION     0.26     2.00    42.00     0  01:57        2.00
  J8                   JUNCTION     0.12     0.27    36.27     0  02:10        0.27
  CSO8                 JUNCTION     0.28     2.00    34.00     0  01:55        2.00
  J10                  JUNCTION     0.10     0.29    29.29     0  02:02        0.29
  J13                  JUNCTION     0.07     0.19    29.19     0  02:03        0.19
  J15                  JUNCTION     0.22     0.37    15.37     0  02:08        0.37
  J16                  JUNCTION     0.07     0.21    30.21     0  02:02        0.21
  CSO10                JUNCTION     0.17     1.00    31.00     0  01:54        1.00
  J12                  JUNCTION     0.54     0.85    26.85     0  05:11        0.85
  J4                   JUNCTION     0.19     1.49    34.49     0  01:56        0.77
  J6                   JUNCTION     0.09     0.11    25.11     0  03:25        0.11
  J2                   JUNCTION     0.07     0.08    25.08     0  03:22        0.08
  J19                  JUNCTION     0.15     0.17     8.17     0  02:08        0.17
  J9                   JUNCTION     0.13     0.16    29.16     0  03:35        0.16
  J14                  JUNCTION     0.15     0.18    20.18     0  06:00        0.18
  J17                  JUNCTION     0.11     0.14    20.14     0  03:13        0.14
  J7                   JUNCTION     0.09     0.23    39.23     0  02:17        0.23
  J11                  JUNCTION     0.11     0.30    31.30     0  02:19        0.30
  J18                  JUNCTION     0.06     0.16    29.16     0  02:20        0.16
  Out_to_WWTP          OUTFALL      0.15     0.17     6.17     0  02:08        0.17
  T5                   STORAGE      3.56     5.00    32.00     0  02:32        5.00
  T4                   STORAGE      1.93     3.79    30.79     0  03:24        3.79
  T6                   STORAGE      2.78     5.00    36.00     0  02:26        5.00
  T3                   STORAGE      3.41     4.85    26.85     0  05:07        4.85
  T2                   STORAGE      1.89     3.78    24.78     0  03:12        3.78
  T1                   STORAGE      3.86     5.00    15.00     0  02:07        5.00
  
  
  *******************
  Node Inflow Summary
  *******************
  
  -------------------------------------------------------------------------------------------------
                                  Maximum  Maximum                  Lateral       Total        Flow
                                  Lateral    Total  Time of Max      Inflow      Inflow     Balance
                                   Inflow   Inflow   Occurrence      Volume      Volume       Error
  Node                 Type           CMS      CMS  days hr:min    10^6 ltr    10^6 ltr     Percent
  -------------------------------------------------------------------------------------------------
  J1                   JUNCTION     0.364    0.364     0  02:03        2.01        2.01       0.015
  J3                   JUNCTION     0.000    0.293     0  03:40           0        6.08       0.785
  CSO7                 JUNCTION     0.097    0.097     0  02:08       0.726       0.726       0.063
  J5                   JUNCTION     0.130    0.201     0  02:08       0.761        1.44       0.072
  CSO9                 JUNCTION     0.144    0.144     0  02:05       0.833       0.833       0.039
  J8                   JUNCTION     0.586    0.713     0  02:10        3.91        4.73       0.073
  CSO8                 JUNCTION     0.592    0.592     0  02:04        2.88        2.88       0.012
  J10                  JUNCTION     0.443    0.930     0  02:01        2.06        4.84       0.014
  J13                  JUNCTION     0.520    0.520     0  02:03        2.58        2.58      -0.242
  J15                  JUNCTION     0.000    1.200     0  02:04           0          13       0.865
  J16                  JUNCTION     0.761    0.761     0  02:02        3.62        3.62      -0.029
  CSO10                JUNCTION     0.252    0.252     0  02:04        1.23        1.23       0.020
  J12                  JUNCTION     0.000    1.037     0  02:03           0        8.16       6.139
  J4                   JUNCTION     0.000    0.077     0  01:56           0       0.685       0.474
  J6                   JUNCTION     0.000    0.069     0  03:24           0        1.26       0.374
  J2                   JUNCTION     0.000    0.039     0  02:32           0       0.864       0.610
  J19                  JUNCTION     0.000    0.271     0  02:07           0        6.15       0.206
  J9                   JUNCTION     0.000    0.175     0  02:26           0        3.34       0.543
  J14                  JUNCTION     0.000    0.187     0  05:07           0        3.98       0.249
  J17                  JUNCTION     0.000    0.122     0  03:12           0        2.19       0.450
  J7                   JUNCTION     0.000    0.127     0  02:17           0       0.819       0.383
  J11                  JUNCTION     0.000    0.486     0  02:19           0        2.79       0.225
  J18                  JUNCTION     0.000    0.202     0  02:20           0        1.18       0.037
  Out_to_WWTP          OUTFALL      0.000    0.271     0  02:09           0        6.14       0.000
  T5                   STORAGE      0.000    0.364     0  02:03           0        2.01      24.657
  T4                   STORAGE      0.000    0.201     0  02:08           0        1.44       6.083
  T6                   STORAGE      0.000    0.712     0  02:11           0        4.72       5.562
  T3                   STORAGE      0.000    1.028     0  02:06           0        7.69      20.287
  T2                   STORAGE      0.000    0.519     0  02:03           0        2.58       8.087
  T1                   STORAGE      0.000    1.188     0  02:08           0        12.9       6.840
  
  
  **********************
  Node Surcharge Summary
  **********************
  
  Surcharging occurs when water rises above the top of the highest conduit.
  ---------------------------------------------------------------------
                                               Max. Height   Min. Depth
                                   Hours       Above Crown    Below Rim
  Node                 Type      Surcharged         Meters       Meters
  ---------------------------------------------------------------------
  CSO7                 JUNCTION        1.15          0.945        0.000
  CSO9                 JUNCTION        1.07          1.682        0.000
  CSO8                 JUNCTION        0.99          1.547        0.000
  CSO10                JUNCTION        0.64          0.560        0.000
  J4                   JUNCTION        1.13          1.188        0.512
  
  
  *********************
  Node Flooding Summary
  *********************
  
  Flooding refers to all water that overflows a node, whether it ponds or not.
  --------------------------------------------------------------------------
                                                             Total   Maximum
                                 Maximum   Time of Max       Flood    Ponded
                        Hours       Rate    Occurrence      Volume     Depth
  Node                 Flooded       CMS   days hr:min    10^6 ltr    Meters
  --------------------------------------------------------------------------
  CSO7                    0.72     0.026      0  02:08       0.041     0.000
  CSO9                    0.34     0.016      0  02:05       0.013     0.000
  CSO8                    0.40     0.107      0  02:04       0.095     0.000
  CSO10                   0.42     0.049      0  02:04       0.045     0.000
  T5                      1.26     0.188      0  02:32       0.349     0.000
  T6                      1.18     0.473      0  02:26       0.977     0.000
  T1                      5.71     0.918      0  02:08       5.216     0.000
  
  
  **********************
  Storage Volume Summary
  **********************
  
  --------------------------------------------------------------------------------------------------
                         Average     Avg  Evap Exfil       Maximum     Max    Time of Max    Maximum
                          Volume    Pcnt  Pcnt  Pcnt        Volume    Pcnt     Occurrence    Outflow
  Storage Unit           1000 m3    Full  Loss  Loss       1000 m3    Full    days hr:min        CMS
  --------------------------------------------------------------------------------------------------
  T5                       0.356      71     0     0         0.500     100       0  02:32      0.039
  T4                       0.193      39     0     0         0.379      76       0  03:24      0.069
  T6                       0.334      56     0     0         0.600     100       0  02:26      0.175
  T3                       1.772      68     0     0         2.525      97       0  05:07      0.206
  T2                       0.379      38     0     0         0.755      76       0  03:12      0.122
  T1                       0.541      77     0     0         0.700     100       0  02:07      0.271
  
  
  ***********************
  Outfall Loading Summary
  ***********************
  
  -----------------------------------------------------------
                         Flow       Avg       Max       Total
                         Freq      Flow      Flow      Volume
  Outfall Node           Pcnt       CMS       CMS    10^6 ltr
  -----------------------------------------------------------
  Out_to_WWTP           99.01     0.220     0.271       6.139
  -----------------------------------------------------------
  System                99.01     0.220     0.271       6.139
  
  
  ********************
  Link Flow Summary
  ********************
  
  -----------------------------------------------------------------------------
                                 Maximum  Time of Max   Maximum    Max/    Max/
                                  |Flow|   Occurrence   |Veloc|    Full    Full
  Link                 Type          CMS  days hr:min     m/sec    Flow   Depth
  -----------------------------------------------------------------------------
  C1                   CONDUIT     0.039     0  03:21      0.91    0.01    0.12
  C6                   CONDUIT     0.071     0  02:08      1.29    1.13    0.75
  C2                   CONDUIT     0.069     0  03:25      1.37    0.08    0.23
  C9                   CONDUIT     0.127     0  02:18      1.29    0.43    0.51
  C16                  CONDUIT     0.487     0  02:01      1.78    0.05    0.15
  C3                   CONDUIT     0.187     0  05:07      2.05    0.07    0.18
  C19                  CONDUIT     0.122     0  03:13      1.15    0.04    0.24
  C11                  CONDUIT     0.293     0  03:41      1.84    0.01    0.13
  C20                  CONDUIT     0.760     0  02:03      2.78    0.02    0.14
  C22                  CONDUIT     0.202     0  02:20      1.51    0.09    0.33
  C12                  CONDUIT     0.175     0  03:35      0.94    0.01    0.25
  C17                  CONDUIT     0.926     0  02:02      3.01    0.05    0.23
  C10                  CONDUIT     0.712     0  02:11      1.66    0.07    0.59
  C13                  CONDUIT     1.028     0  02:06      1.53    0.06    0.71
  C18                  CONDUIT     0.519     0  02:03      1.72    0.02    0.55
  C23                  CONDUIT     1.188     0  02:08      1.26    0.13    0.62
  C4                   CONDUIT     0.364     0  02:03      1.98    0.09    0.60
  C7                   CONDUIT     0.201     0  02:08      1.43    0.05    0.58
  C14                  CONDUIT     0.271     0  02:09      2.08    0.02    0.09
  C5                   CONDUIT     0.077     0  01:56      1.51    1.32    1.00
  C8                   CONDUIT     0.127     0  02:17      1.76    1.60    0.86
  C15                  CONDUIT     0.486     0  02:19      3.43    1.55    0.83
  C21                  CONDUIT     0.202     0  02:20      1.83    1.16    0.69
  V4                   ORIFICE     0.069     0  03:24                      1.00
  V5                   ORIFICE     0.039     0  02:32                      1.00
  V1                   ORIFICE     0.271     0  02:07                      1.00
  V6                   ORIFICE     0.175     0  02:26                      1.00
  V3                   ORIFICE     0.187     0  05:07                      1.00
  V2                   ORIFICE     0.122     0  03:12                      1.00
  
  
  ***************************
  Flow Classification Summary
  ***************************
  
  -------------------------------------------------------------------------------------
                      Adjusted    ---------- Fraction of Time in Flow Class ---------- 
                       /Actual         Up    Down  Sub   Sup   Up    Down  Norm  Inlet 
  Conduit               Length    Dry  Dry   Dry   Crit  Crit  Crit  Crit  Ltd   Ctrl  
  -------------------------------------------------------------------------------------
  C1                      1.00   0.00  0.00  0.00  0.92  0.08  0.00  0.00  0.95  0.00
  C6                      1.00   0.00  0.00  0.00  0.17  0.83  0.00  0.00  0.00  0.00
  C2                      1.00   0.00  0.00  0.00  0.02  0.97  0.00  0.00  0.94  0.00
  C9                      1.00   0.00  0.00  0.00  1.00  0.00  0.00  0.00  1.00  0.00
  C16                     1.00   0.00  0.00  0.00  0.57  0.43  0.00  0.00  0.46  0.00
  C3                      1.00   0.00  0.00  0.00  0.05  0.94  0.00  0.00  0.07  0.00
  C19                     1.00   0.00  0.00  0.00  0.81  0.19  0.00  0.00  1.00  0.00
  C11                     1.00   0.00  0.00  0.00  0.26  0.74  0.00  0.00  1.00  0.00
  C20                     1.00   0.00  0.00  0.00  0.65  0.35  0.00  0.00  0.98  0.00
  C22                     1.00   0.00  0.00  0.00  0.83  0.17  0.00  0.00  1.00  0.00
  C12                     1.00   0.00  0.00  0.00  0.93  0.06  0.00  0.00  1.00  0.00
  C17                     1.00   0.00  0.00  0.00  0.62  0.38  0.00  0.00  0.96  0.00
  C10                     1.00   0.00  0.00  0.00  0.94  0.06  0.00  0.00  0.97  0.00
  C13                     1.00   0.00  0.00  0.00  0.83  0.17  0.00  0.00  0.27  0.00
  C18                     1.00   0.00  0.00  0.00  0.82  0.18  0.00  0.00  0.97  0.00
  C23                     1.00   0.00  0.00  0.00  0.90  0.10  0.00  0.00  0.94  0.00
  C4                      1.00   0.00  0.00  0.00  0.96  0.04  0.00  0.00  0.98  0.00
  C7                      1.00   0.00  0.00  0.00  0.91  0.09  0.00  0.00  0.96  0.00
  C14                     1.00   0.00  0.00  0.00  0.00  0.99  0.00  0.00  0.00  0.00
  C5                      1.00   0.00  0.00  0.00  0.90  0.10  0.00  0.00  0.83  0.00
  C8                      1.00   0.00  0.00  0.00  0.17  0.83  0.00  0.00  0.00  0.00
  C15                     1.00   0.00  0.00  0.00  0.00  1.00  0.00  0.00  0.00  0.00
  C21                     1.00   0.00  0.00  0.00  0.01  0.99  0.00  0.00  0.00  0.00
  
  
  *************************
  Conduit Surcharge Summary
  *************************
  
  ----------------------------------------------------------------------------
                                                           Hours        Hours 
                         --------- Hours Full --------   Above Full   Capacity
  Conduit                Both Ends  Upstream  Dnstream   Normal Flow   Limited
  ----------------------------------------------------------------------------
  C6                          0.01      1.13      0.01      0.89         0.01
  C10                         0.01      0.01      5.67      0.01         0.01
  C13                         0.01      0.01      5.67      0.01         0.01
  C18                         0.01      0.01      3.72      0.01         0.01
  C23                         0.01      0.01      6.12      0.01         0.01
  C4                          0.01      0.01      6.16      0.01         0.01
  C7                          0.01      0.01      5.84      0.01         0.01
  C5                          1.14      1.15      1.23      1.13         1.05
  C8                          0.01      1.07      0.01      1.06         0.01
  C15                         0.01      0.99      0.01      1.05         0.01
  C21                         0.01      0.64      0.01      0.60         0.01
  

  Analysis begun on:  Fri Sep  3 17:46:14 2021
  Analysis ended on:  Fri Sep  3 17:46:14 2021
  Total elapsed time: < 1 sec