
  EPA STORM WATER MANAGEMENT MODEL - VERSION 5.1 (Build 5.3.0.dev0)
  --------------------------------------------------------------

  
  *********************************************************
  NOTE: The summary statistics displayed in this report are
  based on results found at every computational time step,  
  not just on results from each reporting time step.
  *********************************************************
  
  ****************
  Analysis Options
  ****************
  Flow Units ............... CMS
  Process Models:
    Rainfall/Runoff ........ YES
    RDII ................... NO
    Snowmelt ............... NO
    Groundwater ............ NO
    Flow Routing ........... YES
    Ponding Allowed ........ YES
    Water Quality .......... NO
  Infiltration Method ...... HORTON
  Flow Routing Method ...... DYNWAVE
  Surcharge Method ......... EXTRAN
  Starting Date ............ 08/28/2015 08:00:00
  Ending Date .............. 08/28/2015 15:50:00
  Antecedent Dry Days ...... 0.0
  Report Time Step ......... 00:01:00
  Wet Time Step ............ 00:01:00
  Dry Time Step ............ 00:01:00
  Routing Time Step ........ 5.00 sec
  Variable Time Step ....... YES
  Maximum Trials ........... 8
  Number of Threads ........ 1
  Head Tolerance ........... 0.001500 m
  
  
  **************************        Volume         Depth
  Runoff Quantity Continuity     hectare-m            mm
  **************************     ---------       -------
  Total Precipitation ......         2.256        12.520
  Evaporation Loss .........         0.000         0.000
  Infiltration Loss ........         0.000         0.000
  Surface Runoff ...........         2.233        12.393
  Final Storage ............         0.023         0.128
  Continuity Error (%) .....        -0.010
  
  
  **************************        Volume        Volume
  Flow Routing Continuity        hectare-m      10^6 ltr
  **************************     ---------     ---------
  Dry Weather Inflow .......         0.396         3.955
  Wet Weather Inflow .......         2.233        22.332
  Groundwater Inflow .......         0.000         0.000
  RDII Inflow ..............         0.000         0.000
  External Inflow ..........         0.000         0.000
  External Outflow .........         0.632         6.324
  Flooding Loss ............         1.171        11.712
  Evaporation Loss .........         0.000         0.000
  Exfiltration Loss ........         0.000         0.000
  Initial Stored Volume ....         0.000         0.000
  Final Stored Volume ......         0.673         6.733
  Continuity Error (%) .....         5.776
  
  
  *************************
  Highest Continuity Errors
  *************************
  Node T5 (15.75%)
  Node T3 (15.53%)
  Node T2 (9.28%)
  Node J12 (6.63%)
  Node T4 (6.29%)
  
  
  ***************************
  Time-Step Critical Elements
  ***************************
  None
  
  
  ********************************
  Highest Flow Instability Indexes
  ********************************
  All links are stable.
  
  
  *************************
  Routing Time Step Summary
  *************************
  Minimum Time Step           :     4.50 sec
  Average Time Step           :     5.00 sec
  Maximum Time Step           :     5.00 sec
  Percent in Steady State     :     0.00
  Average Iterations per Step :     2.18
  Percent Not Converging      :     0.43
  
  
  ***************************
  Subcatchment Runoff Summary
  ***************************
  
  ------------------------------------------------------------------------------------------------------------------------------
                            Total      Total      Total      Total     Imperv       Perv      Total       Total     Peak  Runoff
                           Precip      Runon       Evap      Infil     Runoff     Runoff     Runoff      Runoff   Runoff   Coeff
  Subcatchment                 mm         mm         mm         mm         mm         mm         mm    10^6 ltr      CMS
  ------------------------------------------------------------------------------------------------------------------------------
  SC01                      12.52       0.00       0.00       0.00      12.44       0.00      12.44        4.10     1.24   0.993
  SC02                      12.52       0.00       0.00       0.00      12.43       0.00      12.43        2.83     0.84   0.993
  SC03                      12.52       0.00       0.00       0.00      12.45       0.00      12.45        2.24     0.71   0.995
  SC04                      12.52       0.00       0.00       0.00      12.33       0.00      12.33        0.85     0.21   0.985
  SC05                      12.52       0.00       0.00       0.00      12.43       0.00      12.43        1.94     0.58   0.993
  SC06                      12.52       0.00       0.00       0.00      12.28       0.00      12.28        4.00     0.93   0.981
  SC07                      12.52       0.00       0.00       0.00      12.33       0.00      12.33        0.59     0.14   0.985
  SC08                      12.52       0.00       0.00       0.00      12.41       0.00      12.41        3.47     0.97   0.991
  SC09                      12.52       0.00       0.00       0.00      12.38       0.00      12.38        0.85     0.23   0.989
  SC010                     12.52       0.00       0.00       0.00      12.41       0.00      12.41        1.46     0.41   0.991
  
  
  ******************
  Node Depth Summary
  ******************
  
  ---------------------------------------------------------------------------------
                                 Average  Maximum  Maximum  Time of Max    Reported
                                   Depth    Depth      HGL   Occurrence   Max Depth
  Node                 Type       Meters   Meters   Meters  days hr:min      Meters
  ---------------------------------------------------------------------------------
  J1                   JUNCTION     0.08     0.26    34.26     0  01:45        0.26
  J3                   JUNCTION     0.14     0.17    18.17     0  03:25        0.17
  CSO7                 JUNCTION     0.25     1.20    35.20     0  01:31        1.20
  J5                   JUNCTION     0.07     0.18    32.18     0  01:50        0.18
  CSO9                 JUNCTION     0.30     2.00    42.00     0  01:30        2.00
  J8                   JUNCTION     0.13     0.34    36.34     0  01:52        0.34
  CSO8                 JUNCTION     0.32     2.00    34.00     0  01:28        2.00
  J10                  JUNCTION     0.11     0.33    29.33     0  01:44        0.33
  J13                  JUNCTION     0.08     0.24    29.24     0  01:45        0.24
  J15                  JUNCTION     0.23     0.44    15.44     0  01:48        0.44
  J16                  JUNCTION     0.08     0.27    30.27     0  01:44        0.27
  CSO10                JUNCTION     0.20     1.00    31.00     0  01:26        1.00
  J12                  JUNCTION     0.70     1.01    27.01     0  03:19        1.00
  J4                   JUNCTION     0.20     1.45    34.45     0  01:31        0.75
  J6                   JUNCTION     0.09     0.12    25.12     0  03:23        0.12
  J2                   JUNCTION     0.07     0.08    25.08     0  02:46        0.08
  J19                  JUNCTION     0.15     0.17     8.17     0  01:46        0.17
  J9                   JUNCTION     0.13     0.16    29.16     0  03:07        0.16
  J14                  JUNCTION     0.16     0.19    20.19     0  06:00        0.19
  J17                  JUNCTION     0.12     0.15    20.15     0  03:11        0.15
  J7                   JUNCTION     0.10     0.23    39.23     0  02:06        0.23
  J11                  JUNCTION     0.11     0.30    31.30     0  02:06        0.30
  J18                  JUNCTION     0.06     0.16    29.16     0  02:06        0.16
  Out_to_WWTP          OUTFALL      0.15     0.17     6.17     0  01:46        0.17
  T5                   STORAGE      3.79     5.00    32.00     0  01:55        5.00
  T4                   STORAGE      2.60     4.82    31.82     0  03:21        4.82
  T6                   STORAGE      3.02     5.00    36.00     0  01:55        5.00
  T3                   STORAGE      3.74     5.00    27.00     0  03:07        5.00
  T2                   STORAGE      2.75     5.00    26.00     0  03:00        5.00
  T1                   STORAGE      4.03     5.00    15.00     0  01:45        5.00
  
  
  *******************
  Node Inflow Summary
  *******************
  
  -------------------------------------------------------------------------------------------------
                                  Maximum  Maximum                  Lateral       Total        Flow
                                  Lateral    Total  Time of Max      Inflow      Inflow     Balance
                                   Inflow   Inflow   Occurrence      Volume      Volume       Error
  Node                 Type           CMS      CMS  days hr:min    10^6 ltr    10^6 ltr     Percent
  -------------------------------------------------------------------------------------------------
  J1                   JUNCTION     0.593    0.593     0  01:45         2.5         2.5      -0.001
  J3                   JUNCTION     0.000    0.307     0  03:23           0        6.57       0.749
  CSO7                 JUNCTION     0.154    0.154     0  01:49       0.876       0.876       0.055
  J5                   JUNCTION     0.214    0.287     0  01:49       0.978        1.72       0.042
  CSO9                 JUNCTION     0.235    0.235     0  01:47        1.05        1.05       0.031
  J8                   JUNCTION     0.955    1.082     0  01:51        4.94        5.85       0.040
  CSO8                 JUNCTION     0.985    0.985     0  01:46        3.77        3.77       0.010
  J10                  JUNCTION     0.726    1.212     0  01:43        2.63        5.73      -0.026
  J13                  JUNCTION     0.856    0.856     0  01:45         3.3         3.3      -0.245
  J15                  JUNCTION     0.000    1.714     0  01:46           0        15.1       0.775
  J16                  JUNCTION     1.256    1.256     0  01:44        4.66        4.66      -0.047
  CSO10                JUNCTION     0.417    0.417     0  01:46         1.6         1.6       0.017
  J12                  JUNCTION     0.000    1.328     0  01:45           0        9.23       7.101
  J4                   JUNCTION     0.000    0.081     0  01:31           0       0.746       0.436
  J6                   JUNCTION     0.000    0.078     0  03:21           0        1.47       0.357
  J2                   JUNCTION     0.000    0.039     0  01:55           0       0.899       0.584
  J19                  JUNCTION     0.000    0.271     0  01:45           0        6.34       0.200
  J9                   JUNCTION     0.000    0.175     0  01:55           0        3.51       0.526
  J14                  JUNCTION     0.000    0.190     0  03:07           0        4.22       0.237
  J17                  JUNCTION     0.000    0.140     0  03:00           0        2.66       0.432
  J7                   JUNCTION     0.000    0.127     0  02:06           0       0.913       0.346
  J11                  JUNCTION     0.000    0.487     0  02:06           0        3.11       0.214
  J18                  JUNCTION     0.000    0.202     0  02:05           0        1.31       0.018
  Out_to_WWTP          OUTFALL      0.000    0.271     0  01:47           0        6.32       0.000
  T5                   STORAGE      0.000    0.593     0  01:45           0         2.5      18.691
  T4                   STORAGE      0.000    0.287     0  01:50           0        1.72       6.716
  T6                   STORAGE      0.000    1.082     0  01:52           0        5.85       4.456
  T3                   STORAGE      0.000    1.317     0  01:47           0        8.62      18.380
  T2                   STORAGE      0.000    0.855     0  01:45           0         3.3      10.232
  T1                   STORAGE      0.000    1.693     0  01:49           0          15       5.763
  
  
  **********************
  Node Surcharge Summary
  **********************
  
  Surcharging occurs when water rises above the top of the highest conduit.
  ---------------------------------------------------------------------
                                               Max. Height   Min. Depth
                                   Hours       Above Crown    Below Rim
  Node                 Type      Surcharged         Meters       Meters
  ---------------------------------------------------------------------
  CSO7                 JUNCTION        1.60          0.945        0.000
  CSO9                 JUNCTION        1.14          1.682        0.000
  CSO8                 JUNCTION        1.00          1.547        0.000
  CSO10                JUNCTION        0.76          0.560        0.000
  J4                   JUNCTION        1.58          1.150        0.550
  
  
  *********************
  Node Flooding Summary
  *********************
  
  Flooding refers to all water that overflows a node, whether it ponds or not.
  --------------------------------------------------------------------------
                                                             Total   Maximum
                                 Maximum   Time of Max       Flood    Ponded
                        Hours       Rate    Occurrence      Volume     Depth
  Node                 Flooded       CMS   days hr:min    10^6 ltr    Meters
  --------------------------------------------------------------------------
  CSO7                    0.84     0.082      0  01:49       0.130     0.000
  CSO9                    0.60     0.108      0  01:47       0.137     0.000
  CSO8                    0.63     0.499      0  01:46       0.651     0.000
  CSO10                   0.64     0.215      0  01:46       0.282     0.000
  T5                      1.92     0.472      0  01:55       0.808     0.000
  T6                      1.72     0.898      0  01:55       1.925     0.000
  T3                      1.84     0.408      0  03:07       0.563     0.000
  T2                      0.20     0.111      0  03:01       0.041     0.000
  T1                      6.08     1.422      0  01:49       7.175     0.000
  
  
  **********************
  Storage Volume Summary
  **********************
  
  --------------------------------------------------------------------------------------------------
                         Average     Avg  Evap Exfil       Maximum     Max    Time of Max    Maximum
                          Volume    Pcnt  Pcnt  Pcnt        Volume    Pcnt     Occurrence    Outflow
  Storage Unit           1000 m3    Full  Loss  Loss       1000 m3    Full    days hr:min        CMS
  --------------------------------------------------------------------------------------------------
  T5                       0.379      76     0     0         0.500     100       0  01:55      0.039
  T4                       0.260      52     0     0         0.482      96       0  03:21      0.078
  T6                       0.362      60     0     0         0.600     100       0  01:55      0.175
  T3                       1.946      75     0     0         2.600     100       0  03:07      0.190
  T2                       0.550      55     0     0         1.000     100       0  03:00      0.140
  T1                       0.564      81     0     0         0.700     100       0  01:45      0.271
  
  
  ***********************
  Outfall Loading Summary
  ***********************
  
  -----------------------------------------------------------
                         Flow       Avg       Max       Total
                         Freq      Flow      Flow      Volume
  Outfall Node           Pcnt       CMS       CMS    10^6 ltr
  -----------------------------------------------------------
  Out_to_WWTP           99.01     0.227     0.271       6.324
  -----------------------------------------------------------
  System                99.01     0.227     0.271       6.324
  
  
  ********************
  Link Flow Summary
  ********************
  
  -----------------------------------------------------------------------------
                                 Maximum  Time of Max   Maximum    Max/    Max/
                                  |Flow|   Occurrence   |Veloc|    Full    Full
  Link                 Type          CMS  days hr:min     m/sec    Flow   Depth
  -----------------------------------------------------------------------------
  C1                   CONDUIT     0.039     0  02:46      0.91    0.01    0.12
  C6                   CONDUIT     0.072     0  01:50      1.29    1.15    0.80
  C2                   CONDUIT     0.078     0  03:23      1.46    0.09    0.24
  C9                   CONDUIT     0.127     0  02:06      1.31    0.43    0.57
  C16                  CONDUIT     0.487     0  01:32      1.81    0.05    0.16
  C3                   CONDUIT     0.190     0  03:09      2.05    0.07    0.18
  C19                  CONDUIT     0.140     0  03:11      1.25    0.05    0.28
  C11                  CONDUIT     0.307     0  03:25      1.84    0.02    0.14
  C20                  CONDUIT     1.254     0  01:44      3.42    0.04    0.18
  C22                  CONDUIT     0.202     0  02:04      1.55    0.09    0.38
  C12                  CONDUIT     0.175     0  03:07      0.92    0.01    0.29
  C17                  CONDUIT     1.206     0  01:44      3.26    0.06    0.30
  C10                  CONDUIT     1.082     0  01:52      1.66    0.11    0.61
  C13                  CONDUIT     1.317     0  01:47      1.76    0.08    0.75
  C18                  CONDUIT     0.855     0  01:45      1.72    0.03    0.56
  C23                  CONDUIT     1.693     0  01:49      1.40    0.19    0.65
  C4                   CONDUIT     0.593     0  01:45      1.98    0.14    0.63
  C7                   CONDUIT     0.287     0  01:50      1.43    0.07    0.59
  C14                  CONDUIT     0.271     0  01:47      2.08    0.02    0.09
  C5                   CONDUIT     0.081     0  01:31      1.57    1.38    1.00
  C8                   CONDUIT     0.127     0  02:06      1.77    1.60    0.86
  C15                  CONDUIT     0.487     0  02:06      3.44    1.55    0.83
  C21                  CONDUIT     0.202     0  02:05      1.83    1.16    0.69
  V4                   ORIFICE     0.078     0  03:21                      1.00
  V5                   ORIFICE     0.039     0  01:55                      1.00
  V1                   ORIFICE     0.271     0  01:45                      1.00
  V6                   ORIFICE     0.175     0  01:55                      1.00
  V3                   ORIFICE     0.190     0  03:07                      1.00
  V2                   ORIFICE     0.140     0  03:00                      1.00
  
  
  ***************************
  Flow Classification Summary
  ***************************
  
  -------------------------------------------------------------------------------------
                      Adjusted    ---------- Fraction of Time in Flow Class ---------- 
                       /Actual         Up    Down  Sub   Sup   Up    Down  Norm  Inlet 
  Conduit               Length    Dry  Dry   Dry   Crit  Crit  Crit  Crit  Ltd   Ctrl  
  -------------------------------------------------------------------------------------
  C1                      1.00   0.00  0.00  0.00  0.92  0.08  0.00  0.00  0.95  0.00
  C6                      1.00   0.00  0.00  0.00  0.22  0.78  0.00  0.00  0.00  0.00
  C2                      1.00   0.00  0.00  0.00  0.01  0.99  0.00  0.00  0.94  0.00
  C9                      1.00   0.00  0.00  0.00  1.00  0.00  0.00  0.00  1.00  0.00
  C16                     1.00   0.00  0.00  0.00  0.56  0.44  0.00  0.00  0.50  0.00
  C3                      1.00   0.00  0.00  0.00  0.05  0.94  0.00  0.00  0.07  0.00
  C19                     1.00   0.00  0.00  0.00  0.60  0.40  0.00  0.00  1.00  0.00
  C11                     1.00   0.00  0.00  0.00  0.22  0.78  0.00  0.00  1.00  0.00
  C20                     1.00   0.00  0.00  0.00  0.64  0.36  0.00  0.00  0.98  0.00
  C22                     1.00   0.00  0.00  0.00  0.91  0.09  0.00  0.00  1.00  0.00
  C12                     1.00   0.00  0.00  0.00  0.94  0.06  0.00  0.00  1.00  0.00
  C17                     1.00   0.00  0.00  0.00  0.68  0.32  0.00  0.00  0.93  0.00
  C10                     1.00   0.00  0.00  0.00  0.94  0.06  0.00  0.00  0.97  0.00
  C13                     1.00   0.00  0.00  0.00  0.83  0.17  0.00  0.00  0.21  0.00
  C18                     1.00   0.00  0.00  0.00  0.83  0.17  0.00  0.00  0.97  0.00
  C23                     1.00   0.00  0.00  0.00  0.90  0.10  0.00  0.00  0.94  0.00
  C4                      1.00   0.00  0.00  0.00  0.96  0.04  0.00  0.00  0.98  0.00
  C7                      1.00   0.00  0.00  0.00  0.90  0.10  0.00  0.00  0.96  0.00
  C14                     1.00   0.00  0.00  0.00  0.00  0.99  0.00  0.00  0.00  0.00
  C5                      1.00   0.00  0.00  0.00  0.92  0.08  0.00  0.00  0.75  0.00
  C8                      1.00   0.00  0.00  0.00  0.22  0.78  0.00  0.00  0.00  0.00
  C15                     1.00   0.00  0.00  0.00  0.00  1.00  0.00  0.00  0.00  0.00
  C21                     1.00   0.00  0.00  0.00  0.01  0.99  0.00  0.00  0.00  0.00
  
  
  *************************
  Conduit Surcharge Summary
  *************************
  
  ----------------------------------------------------------------------------
                                                           Hours        Hours 
                         --------- Hours Full --------   Above Full   Capacity
  Conduit                Both Ends  Upstream  Dnstream   Normal Flow   Limited
  ----------------------------------------------------------------------------
  C6                          0.01      1.58      0.01      1.01         0.01
  C10                         0.01      0.01      6.02      0.01         0.01
  C13                         0.01      0.01      6.03      0.01         0.01
  C18                         0.01      0.01      5.23      0.01         0.01
  C23                         0.01      0.01      6.35      0.01         0.01
  C4                          0.01      0.01      6.40      0.01         0.01
  C7                          0.01      0.01      6.18      0.01         0.01
  C5                          1.58      1.60      1.68      1.62         1.55
  C8                          0.01      1.14      0.01      1.11         0.01
  C15                         0.01      1.00      0.01      1.04         0.01
  C21                         0.01      0.76      0.01      0.74         0.01
  

  Analysis begun on:  Fri Sep  3 17:50:33 2021
  Analysis ended on:  Fri Sep  3 17:50:33 2021
  Total elapsed time: < 1 sec