
  EPA STORM WATER MANAGEMENT MODEL - VERSION 5.1 (Build 5.3.0.dev0)
  --------------------------------------------------------------

  
  *********************************************************
  NOTE: The summary statistics displayed in this report are
  based on results found at every computational time step,  
  not just on results from each reporting time step.
  *********************************************************
  
  ****************
  Analysis Options
  ****************
  Flow Units ............... CMS
  Process Models:
    Rainfall/Runoff ........ YES
    RDII ................... NO
    Snowmelt ............... NO
    Groundwater ............ NO
    Flow Routing ........... YES
    Ponding Allowed ........ YES
    Water Quality .......... NO
  Infiltration Method ...... HORTON
  Flow Routing Method ...... DYNWAVE
  Surcharge Method ......... EXTRAN
  Starting Date ............ 08/28/2015 08:00:00
  Ending Date .............. 08/28/2015 15:50:00
  Antecedent Dry Days ...... 0.0
  Report Time Step ......... 00:01:00
  Wet Time Step ............ 00:01:00
  Dry Time Step ............ 00:01:00
  Routing Time Step ........ 5.00 sec
  Variable Time Step ....... YES
  Maximum Trials ........... 8
  Number of Threads ........ 1
  Head Tolerance ........... 0.001500 m
  
  
  **************************        Volume         Depth
  Runoff Quantity Continuity     hectare-m            mm
  **************************     ---------       -------
  Total Precipitation ......         1.333         7.397
  Evaporation Loss .........         0.000         0.000
  Infiltration Loss ........         0.000         0.000
  Surface Runoff ...........         1.310         7.271
  Final Storage ............         0.023         0.126
  Continuity Error (%) .....        -0.007
  
  
  **************************        Volume        Volume
  Flow Routing Continuity        hectare-m      10^6 ltr
  **************************     ---------     ---------
  Dry Weather Inflow .......         0.396         3.956
  Wet Weather Inflow .......         1.310        13.104
  Groundwater Inflow .......         0.000         0.000
  RDII Inflow ..............         0.000         0.000
  External Inflow ..........         0.000         0.000
  External Outflow .........         0.612         6.118
  Flooding Loss ............         0.412         4.122
  Evaporation Loss .........         0.000         0.000
  Exfiltration Loss ........         0.000         0.000
  Initial Stored Volume ....         0.000         0.000
  Final Stored Volume ......         0.543         5.432
  Continuity Error (%) .....         8.128
  
  
  *************************
  Highest Continuity Errors
  *************************
  Node T5 (23.32%)
  Node T3 (16.62%)
  Node T1 (7.24%)
  Node T6 (6.04%)
  Node T2 (5.34%)
  
  
  ***************************
  Time-Step Critical Elements
  ***************************
  None
  
  
  ********************************
  Highest Flow Instability Indexes
  ********************************
  Link C13 (1)
  
  
  *************************
  Routing Time Step Summary
  *************************
  Minimum Time Step           :     1.18 sec
  Average Time Step           :     5.00 sec
  Maximum Time Step           :     5.00 sec
  Percent in Steady State     :     0.00
  Average Iterations per Step :     2.11
  Percent Not Converging      :     0.19
  
  
  ***************************
  Subcatchment Runoff Summary
  ***************************
  
  ------------------------------------------------------------------------------------------------------------------------------
                            Total      Total      Total      Total     Imperv       Perv      Total       Total     Peak  Runoff
                           Precip      Runon       Evap      Infil     Runoff     Runoff     Runoff      Runoff   Runoff   Coeff
  Subcatchment                 mm         mm         mm         mm         mm         mm         mm    10^6 ltr      CMS
  ------------------------------------------------------------------------------------------------------------------------------
  SC01                       7.40       0.00       0.00       0.00       7.31       0.00       7.31        2.41     0.57   0.989
  SC02                       7.40       0.00       0.00       0.00       7.31       0.00       7.31        1.66     0.39   0.988
  SC03                       7.40       0.00       0.00       0.00       7.33       0.00       7.33        1.32     0.33   0.991
  SC04                       7.40       0.00       0.00       0.00       7.21       0.00       7.21        0.50     0.09   0.975
  SC05                       7.40       0.00       0.00       0.00       7.31       0.00       7.31        1.14     0.26   0.988
  SC06                       7.40       0.00       0.00       0.00       7.16       0.00       7.16        2.33     0.40   0.968
  SC07                       7.40       0.00       0.00       0.00       7.21       0.00       7.21        0.34     0.06   0.975
  SC08                       7.40       0.00       0.00       0.00       7.28       0.00       7.28        2.04     0.44   0.985
  SC09                       7.40       0.00       0.00       0.00       7.26       0.00       7.26        0.50     0.10   0.982
  SC010                      7.40       0.00       0.00       0.00       7.29       0.00       7.29        0.86     0.19   0.985
  
  
  ******************
  Node Depth Summary
  ******************
  
  ---------------------------------------------------------------------------------
                                 Average  Maximum  Maximum  Time of Max    Reported
                                   Depth    Depth      HGL   Occurrence   Max Depth
  Node                 Type       Meters   Meters   Meters  days hr:min      Meters
  ---------------------------------------------------------------------------------
  J1                   JUNCTION     0.07     0.18    34.18     0  01:56        0.18
  J3                   JUNCTION     0.13     0.16    18.16     0  03:45        0.16
  CSO7                 JUNCTION     0.16     1.20    35.20     0  01:57        1.20
  J5                   JUNCTION     0.07     0.14    32.14     0  02:03        0.14
  CSO9                 JUNCTION     0.17     1.31    41.31     0  02:00        1.28
  J8                   JUNCTION     0.11     0.24    36.24     0  02:05        0.24
  CSO8                 JUNCTION     0.20     1.65    33.65     0  01:57        1.64
  J10                  JUNCTION     0.10     0.27    29.27     0  01:58        0.27
  J13                  JUNCTION     0.07     0.17    29.17     0  01:56        0.17
  J15                  JUNCTION     0.20     0.33    15.33     0  02:02        0.33
  J16                  JUNCTION     0.07     0.19    30.19     0  01:55        0.19
  CSO10                JUNCTION     0.14     0.92    30.92     0  01:52        0.82
  J12                  JUNCTION     0.28     0.42    26.42     0  05:30        0.42
  J4                   JUNCTION     0.16     1.24    34.24     0  01:57        0.76
  J6                   JUNCTION     0.08     0.11    25.11     0  03:23        0.11
  J2                   JUNCTION     0.07     0.08    25.08     0  03:43        0.08
  J19                  JUNCTION     0.15     0.17     8.17     0  02:12        0.17
  J9                   JUNCTION     0.13     0.16    29.16     0  03:29        0.16
  J14                  JUNCTION     0.15     0.18    20.18     0  06:12        0.18
  J17                  JUNCTION     0.10     0.13    20.13     0  03:12        0.13
  J7                   JUNCTION     0.09     0.21    39.21     0  02:02        0.21
  J11                  JUNCTION     0.10     0.29    31.29     0  01:59        0.29
  J18                  JUNCTION     0.06     0.16    29.16     0  01:58        0.16
  Out_to_WWTP          OUTFALL      0.15     0.17     6.17     0  02:11        0.17
  T5                   STORAGE      3.47     5.00    32.00     0  03:03        5.00
  T4                   STORAGE      1.51     2.97    29.97     0  03:22        2.97
  T6                   STORAGE      2.67     5.00    36.00     0  02:44        5.00
  T3                   STORAGE      3.07     4.42    26.42     0  05:25        4.42
  T2                   STORAGE      1.40     2.81    23.81     0  03:11        2.81
  T1                   STORAGE      3.85     5.00    15.00     0  02:11        5.00
  
  
  *******************
  Node Inflow Summary
  *******************
  
  -------------------------------------------------------------------------------------------------
                                  Maximum  Maximum                  Lateral       Total        Flow
                                  Lateral    Total  Time of Max      Inflow      Inflow     Balance
                                   Inflow   Inflow   Occurrence      Volume      Volume       Error
  Node                 Type           CMS      CMS  days hr:min    10^6 ltr    10^6 ltr     Percent
  -------------------------------------------------------------------------------------------------
  J1                   JUNCTION     0.281    0.281     0  01:55         1.7         1.7       0.020
  J3                   JUNCTION     0.000    0.276     0  03:44           0        5.73       0.799
  CSO7                 JUNCTION     0.074    0.074     0  02:02       0.633       0.633       0.068
  J5                   JUNCTION     0.097    0.168     0  02:02       0.625        1.25       0.081
  CSO9                 JUNCTION     0.109    0.109     0  02:00       0.697       0.697       0.042
  J8                   JUNCTION     0.437    0.545     0  02:04        3.27        3.97       0.086
  CSO8                 JUNCTION     0.451    0.451     0  01:57        2.33        2.33       0.010
  J10                  JUNCTION     0.345    0.780     0  01:56         1.7        4.03       0.096
  J13                  JUNCTION     0.400    0.400     0  01:55        2.13        2.13      -0.285
  J15                  JUNCTION     0.000    0.975     0  01:58           0        11.5       0.924
  J16                  JUNCTION     0.587    0.587     0  01:55        2.97        2.97      -0.025
  CSO10                JUNCTION     0.191    0.191     0  01:57       0.995       0.995       0.021
  J12                  JUNCTION     0.000    0.870     0  01:59           0        7.27       1.560
  J4                   JUNCTION     0.000    0.072     0  01:57           0        0.63       0.520
  J6                   JUNCTION     0.000    0.061     0  03:22           0        1.12       0.374
  J2                   JUNCTION     0.000    0.039     0  03:03           0       0.853       0.618
  J19                  JUNCTION     0.000    0.271     0  02:11           0        6.13       0.206
  J9                   JUNCTION     0.000    0.175     0  02:44           0        3.27       0.596
  J14                  JUNCTION     0.000    0.178     0  05:26           0        3.78       0.254
  J17                  JUNCTION     0.000    0.105     0  03:11           0        1.89       0.447
  J7                   JUNCTION     0.000    0.109     0  02:00           0       0.697       0.453
  J11                  JUNCTION     0.000    0.451     0  01:57           0        2.33       0.266
  J18                  JUNCTION     0.000    0.191     0  01:57           0       0.995       0.055
  Out_to_WWTP          OUTFALL      0.000    0.271     0  02:12           0        6.12       0.000
  T5                   STORAGE      0.000    0.281     0  01:56           0         1.7      30.406
  T4                   STORAGE      0.000    0.168     0  02:03           0        1.25       5.125
  T6                   STORAGE      0.000    0.545     0  02:05           0        3.96       6.432
  T3                   STORAGE      0.000    0.864     0  02:02           0        7.16      19.937
  T2                   STORAGE      0.000    0.400     0  01:56           0        2.14       5.647
  T1                   STORAGE      0.000    0.965     0  02:02           0        11.4       7.811
  
  
  **********************
  Node Surcharge Summary
  **********************
  
  Surcharging occurs when water rises above the top of the highest conduit.
  ---------------------------------------------------------------------
                                               Max. Height   Min. Depth
                                   Hours       Above Crown    Below Rim
  Node                 Type      Surcharged         Meters       Meters
  ---------------------------------------------------------------------
  CSO7                 JUNCTION        0.71          0.945        0.000
  CSO9                 JUNCTION        0.69          0.997        0.685
  CSO8                 JUNCTION        0.63          1.193        0.354
  CSO10                JUNCTION        0.31          0.481        0.079
  J4                   JUNCTION        0.69          0.944        0.756
  
  
  *********************
  Node Flooding Summary
  *********************
  
  Flooding refers to all water that overflows a node, whether it ponds or not.
  --------------------------------------------------------------------------
                                                             Total   Maximum
                                 Maximum   Time of Max       Flood    Ponded
                        Hours       Rate    Occurrence      Volume     Depth
  Node                 Flooded       CMS   days hr:min    10^6 ltr    Meters
  --------------------------------------------------------------------------
  CSO7                    0.26     0.006      0  01:57       0.002     0.000
  T5                      0.67     0.073      0  03:03       0.055     0.000
  T6                      0.75     0.216      0  02:44       0.306     0.000
  T1                      5.65     0.651      0  02:11       3.758     0.000
  
  
  **********************
  Storage Volume Summary
  **********************
  
  --------------------------------------------------------------------------------------------------
                         Average     Avg  Evap Exfil       Maximum     Max    Time of Max    Maximum
                          Volume    Pcnt  Pcnt  Pcnt        Volume    Pcnt     Occurrence    Outflow
  Storage Unit           1000 m3    Full  Loss  Loss       1000 m3    Full    days hr:min        CMS
  --------------------------------------------------------------------------------------------------
  T5                       0.347      69     0     0         0.500     100       0  03:03      0.039
  T4                       0.151      30     0     0         0.297      59       0  03:22      0.061
  T6                       0.320      53     0     0         0.600     100       0  02:44      0.175
  T3                       1.598      61     0     0         2.300      88       0  05:25      0.178
  T2                       0.281      28     0     0         0.563      56       0  03:11      0.105
  T1                       0.539      77     0     0         0.700     100       0  02:11      0.271
  
  
  ***********************
  Outfall Loading Summary
  ***********************
  
  -----------------------------------------------------------
                         Flow       Avg       Max       Total
                         Freq      Flow      Flow      Volume
  Outfall Node           Pcnt       CMS       CMS    10^6 ltr
  -----------------------------------------------------------
  Out_to_WWTP           99.01     0.219     0.271       6.118
  -----------------------------------------------------------
  System                99.01     0.219     0.271       6.118
  
  
  ********************
  Link Flow Summary
  ********************
  
  -----------------------------------------------------------------------------
                                 Maximum  Time of Max   Maximum    Max/    Max/
                                  |Flow|   Occurrence   |Veloc|    Full    Full
  Link                 Type          CMS  days hr:min     m/sec    Flow   Depth
  -----------------------------------------------------------------------------
  C1                   CONDUIT     0.039     0  03:43      0.91    0.01    0.12
  C6                   CONDUIT     0.070     0  02:03      1.28    1.12    0.73
  C2                   CONDUIT     0.061     0  03:23      1.29    0.07    0.23
  C9                   CONDUIT     0.108     0  02:02      1.26    0.37    0.45
  C16                  CONDUIT     0.449     0  01:59      1.71    0.04    0.14
  C3                   CONDUIT     0.178     0  05:26      2.03    0.07    0.17
  C19                  CONDUIT     0.105     0  03:12      1.07    0.04    0.22
  C11                  CONDUIT     0.275     0  03:45      1.83    0.01    0.11
  C20                  CONDUIT     0.587     0  01:55      2.57    0.02    0.13
  C22                  CONDUIT     0.191     0  01:58      1.48    0.09    0.31
  C12                  CONDUIT     0.175     0  03:29      1.25    0.01    0.14
  C17                  CONDUIT     0.777     0  01:58      2.86    0.04    0.14
  C10                  CONDUIT     0.545     0  02:05      1.66    0.06    0.58
  C13                  CONDUIT     0.864     0  02:02      1.53    0.05    0.61
  C18                  CONDUIT     0.400     0  01:56      1.72    0.01    0.54
  C23                  CONDUIT     0.965     0  02:02      1.26    0.11    0.61
  C4                   CONDUIT     0.281     0  01:56      1.98    0.07    0.59
  C7                   CONDUIT     0.168     0  02:03      1.43    0.04    0.57
  C14                  CONDUIT     0.271     0  02:12      2.08    0.02    0.09
  C5                   CONDUIT     0.072     0  01:57      1.40    1.22    1.00
  C8                   CONDUIT     0.109     0  02:00      1.55    1.37    0.83
  C15                  CONDUIT     0.451     0  01:57      3.21    1.43    0.81
  C21                  CONDUIT     0.191     0  01:57      1.76    1.10    0.68
  V4                   ORIFICE     0.061     0  03:22                      1.00
  V5                   ORIFICE     0.039     0  03:03                      1.00
  V1                   ORIFICE     0.271     0  02:11                      1.00
  V6                   ORIFICE     0.175     0  02:44                      1.00
  V3                   ORIFICE     0.178     0  05:26                      1.00
  V2                   ORIFICE     0.105     0  03:11                      1.00
  
  
  ***************************
  Flow Classification Summary
  ***************************
  
  -------------------------------------------------------------------------------------
                      Adjusted    ---------- Fraction of Time in Flow Class ---------- 
                       /Actual         Up    Down  Sub   Sup   Up    Down  Norm  Inlet 
  Conduit               Length    Dry  Dry   Dry   Crit  Crit  Crit  Crit  Ltd   Ctrl  
  -------------------------------------------------------------------------------------
  C1                      1.00   0.00  0.00  0.00  0.92  0.08  0.00  0.00  0.95  0.00
  C6                      1.00   0.00  0.00  0.00  0.12  0.88  0.00  0.00  0.00  0.00
  C2                      1.00   0.00  0.00  0.00  0.09  0.90  0.00  0.00  0.94  0.00
  C9                      1.00   0.00  0.00  0.00  1.00  0.00  0.00  0.00  1.00  0.00
  C16                     1.00   0.00  0.00  0.00  0.59  0.41  0.00  0.00  0.48  0.00
  C3                      1.00   0.00  0.00  0.00  0.05  0.94  0.00  0.00  0.07  0.00
  C19                     1.00   0.00  0.00  0.00  1.00  0.00  0.00  0.00  1.00  0.00
  C11                     1.00   0.00  0.00  0.00  0.24  0.76  0.00  0.00  1.00  0.00
  C20                     1.00   0.00  0.00  0.00  0.65  0.35  0.00  0.00  0.98  0.00
  C22                     1.00   0.00  0.00  0.00  0.86  0.14  0.00  0.00  1.00  0.00
  C12                     1.00   0.00  0.00  0.00  0.90  0.10  0.00  0.00  1.00  0.00
  C17                     1.00   0.00  0.00  0.00  0.56  0.44  0.00  0.00  0.97  0.00
  C10                     1.00   0.00  0.00  0.00  0.94  0.06  0.00  0.00  0.97  0.00
  C13                     1.00   0.00  0.00  0.00  0.84  0.16  0.00  0.00  0.34  0.00
  C18                     1.00   0.00  0.00  0.00  0.82  0.18  0.00  0.00  0.97  0.00
  C23                     1.00   0.00  0.00  0.00  0.90  0.10  0.00  0.00  0.94  0.00
  C4                      1.00   0.00  0.00  0.00  0.96  0.04  0.00  0.00  0.98  0.00
  C7                      1.00   0.00  0.00  0.00  0.91  0.09  0.00  0.00  0.96  0.00
  C14                     1.00   0.00  0.00  0.00  0.00  0.99  0.00  0.00  0.00  0.00
  C5                      1.00   0.00  0.00  0.00  0.90  0.10  0.00  0.00  0.89  0.00
  C8                      1.00   0.00  0.00  0.00  0.13  0.87  0.00  0.00  0.00  0.00
  C15                     1.00   0.00  0.00  0.00  0.00  1.00  0.00  0.00  0.00  0.00
  C21                     1.00   0.00  0.00  0.00  0.01  0.99  0.00  0.00  0.00  0.00
  
  
  *************************
  Conduit Surcharge Summary
  *************************
  
  ----------------------------------------------------------------------------
                                                           Hours        Hours 
                         --------- Hours Full --------   Above Full   Capacity
  Conduit                Both Ends  Upstream  Dnstream   Normal Flow   Limited
  ----------------------------------------------------------------------------
  C6                          0.01      0.69      0.01      0.45         0.01
  C10                         0.01      0.01      5.55      0.01         0.01
  C13                         0.01      0.01      5.61      0.01         0.01
  C18                         0.01      0.01      2.45      0.01         0.01
  C23                         0.01      0.01      6.09      0.01         0.01
  C4                          0.01      0.01      6.12      0.01         0.01
  C7                          0.01      0.01      5.17      0.01         0.01
  C5                          0.69      0.71      0.84      0.71         0.62
  C8                          0.01      0.69      0.01      0.67         0.01
  C15                         0.01      0.63      0.01      0.68         0.01
  C21                         0.01      0.31      0.01      0.26         0.01
  

  Analysis begun on:  Fri Sep  3 17:52:10 2021
  Analysis ended on:  Fri Sep  3 17:52:10 2021
  Total elapsed time: < 1 sec