
  EPA STORM WATER MANAGEMENT MODEL - VERSION 5.1 (Build 5.3.0.dev0)
  --------------------------------------------------------------

  
  *********************************************************
  NOTE: The summary statistics displayed in this report are
  based on results found at every computational time step,  
  not just on results from each reporting time step.
  *********************************************************
  
  ****************
  Analysis Options
  ****************
  Flow Units ............... CMS
  Process Models:
    Rainfall/Runoff ........ YES
    RDII ................... NO
    Snowmelt ............... NO
    Groundwater ............ NO
    Flow Routing ........... YES
    Ponding Allowed ........ YES
    Water Quality .......... NO
  Infiltration Method ...... HORTON
  Flow Routing Method ...... DYNWAVE
  Surcharge Method ......... EXTRAN
  Starting Date ............ 08/28/2015 08:00:00
  Ending Date .............. 08/28/2015 15:50:00
  Antecedent Dry Days ...... 0.0
  Report Time Step ......... 00:01:00
  Wet Time Step ............ 00:01:00
  Dry Time Step ............ 00:01:00
  Routing Time Step ........ 5.00 sec
  Variable Time Step ....... YES
  Maximum Trials ........... 8
  Number of Threads ........ 1
  Head Tolerance ........... 0.001500 m
  
  
  **************************        Volume         Depth
  Runoff Quantity Continuity     hectare-m            mm
  **************************     ---------       -------
  Total Precipitation ......         3.504        19.442
  Evaporation Loss .........         0.000         0.000
  Infiltration Loss ........         0.000         0.000
  Surface Runoff ...........         3.480        19.311
  Final Storage ............         0.024         0.133
  Continuity Error (%) .....        -0.010
  
  
  **************************        Volume        Volume
  Flow Routing Continuity        hectare-m      10^6 ltr
  **************************     ---------     ---------
  Dry Weather Inflow .......         0.396         3.955
  Wet Weather Inflow .......         3.480        34.798
  Groundwater Inflow .......         0.000         0.000
  RDII Inflow ..............         0.000         0.000
  External Inflow ..........         0.000         0.000
  External Outflow .........         0.641         6.408
  Flooding Loss ............         2.392        23.921
  Evaporation Loss .........         0.000         0.000
  Exfiltration Loss ........         0.000         0.000
  Initial Stored Volume ....         0.000         0.000
  Final Stored Volume ......         0.688         6.875
  Continuity Error (%) .....         3.997
  
  
  *************************
  Highest Continuity Errors
  *************************
  Node T3 (12.24%)
  Node T5 (11.06%)
  Node T2 (6.66%)
  Node J12 (5.50%)
  Node T4 (5.30%)
  
  
  ***************************
  Time-Step Critical Elements
  ***************************
  None
  
  
  ********************************
  Highest Flow Instability Indexes
  ********************************
  All links are stable.
  
  
  *************************
  Routing Time Step Summary
  *************************
  Minimum Time Step           :     4.50 sec
  Average Time Step           :     5.00 sec
  Maximum Time Step           :     5.00 sec
  Percent in Steady State     :     0.00
  Average Iterations per Step :     2.15
  Percent Not Converging      :     0.59
  
  
  ***************************
  Subcatchment Runoff Summary
  ***************************
  
  ------------------------------------------------------------------------------------------------------------------------------
                            Total      Total      Total      Total     Imperv       Perv      Total       Total     Peak  Runoff
                           Precip      Runon       Evap      Infil     Runoff     Runoff     Runoff      Runoff   Runoff   Coeff
  Subcatchment                 mm         mm         mm         mm         mm         mm         mm    10^6 ltr      CMS
  ------------------------------------------------------------------------------------------------------------------------------
  SC01                      19.44       0.00       0.00       0.00      19.36       0.00      19.36        6.39     1.55   0.996
  SC02                      19.44       0.00       0.00       0.00      19.35       0.00      19.35        4.40     1.05   0.995
  SC03                      19.44       0.00       0.00       0.00      19.38       0.00      19.38        3.49     0.90   0.997
  SC04                      19.44       0.00       0.00       0.00      19.24       0.00      19.24        1.33     0.26   0.990
  SC05                      19.44       0.00       0.00       0.00      19.35       0.00      19.35        3.02     0.72   0.995
  SC06                      19.44       0.00       0.00       0.00      19.19       0.00      19.19        6.25     1.12   0.987
  SC07                      19.44       0.00       0.00       0.00      19.24       0.00      19.24        0.91     0.18   0.990
  SC08                      19.44       0.00       0.00       0.00      19.32       0.00      19.32        5.41     1.20   0.994
  SC09                      19.44       0.00       0.00       0.00      19.30       0.00      19.30        1.33     0.28   0.993
  SC010                     19.44       0.00       0.00       0.00      19.33       0.00      19.33        2.27     0.51   0.994
  
  
  ******************
  Node Depth Summary
  ******************
  
  ---------------------------------------------------------------------------------
                                 Average  Maximum  Maximum  Time of Max    Reported
                                   Depth    Depth      HGL   Occurrence   Max Depth
  Node                 Type       Meters   Meters   Meters  days hr:min      Meters
  ---------------------------------------------------------------------------------
  J1                   JUNCTION     0.10     0.29    34.29     0  01:33        0.29
  J3                   JUNCTION     0.14     0.17    18.17     0  03:25        0.17
  CSO7                 JUNCTION     0.36     1.20    35.20     0  01:20        1.20
  J5                   JUNCTION     0.08     0.19    32.19     0  01:38        0.19
  CSO9                 JUNCTION     0.55     2.00    42.00     0  01:19        2.00
  J8                   JUNCTION     0.15     0.37    36.37     0  01:41        0.37
  CSO8                 JUNCTION     0.56     2.00    34.00     0  01:17        2.00
  J10                  JUNCTION     0.13     0.36    29.36     0  01:32        0.36
  J13                  JUNCTION     0.09     0.27    29.27     0  01:33        0.27
  J15                  JUNCTION     0.25     0.48    15.48     0  01:36        0.48
  J16                  JUNCTION     0.09     0.30    30.30     0  01:32        0.30
  CSO10                JUNCTION     0.30     1.00    31.00     0  01:16        1.00
  J12                  JUNCTION     0.75     1.09    27.09     0  02:31        1.09
  J4                   JUNCTION     0.25     1.44    34.44     0  01:21        0.76
  J6                   JUNCTION     0.10     0.12    25.12     0  02:53        0.12
  J2                   JUNCTION     0.07     0.08    25.08     0  02:33        0.08
  J19                  JUNCTION     0.15     0.17     8.17     0  01:36        0.17
  J9                   JUNCTION     0.14     0.16    29.16     0  02:59        0.16
  J14                  JUNCTION     0.16     0.19    20.19     0  06:17        0.19
  J17                  JUNCTION     0.12     0.15    20.15     0  02:33        0.15
  J7                   JUNCTION     0.11     0.23    39.23     0  03:05        0.23
  J11                  JUNCTION     0.13     0.30    31.30     0  02:26        0.30
  J18                  JUNCTION     0.07     0.16    29.16     0  01:56        0.16
  Out_to_WWTP          OUTFALL      0.15     0.17     6.17     0  01:35        0.17
  T5                   STORAGE      3.90     5.00    32.00     0  01:41        5.00
  T4                   STORAGE      2.98     5.00    32.00     0  02:22        5.00
  T6                   STORAGE      3.23     5.00    36.00     0  01:43        5.00
  T3                   STORAGE      3.88     5.00    27.00     0  02:31        5.00
  T2                   STORAGE      2.99     5.00    26.00     0  01:57        5.00
  T1                   STORAGE      4.10     5.00    15.00     0  01:35        5.00
  
  
  *******************
  Node Inflow Summary
  *******************
  
  -------------------------------------------------------------------------------------------------
                                  Maximum  Maximum                  Lateral       Total        Flow
                                  Lateral    Total  Time of Max      Inflow      Inflow     Balance
                                   Inflow   Inflow   Occurrence      Volume      Volume       Error
  Node                 Type           CMS      CMS  days hr:min    10^6 ltr    10^6 ltr     Percent
  -------------------------------------------------------------------------------------------------
  J1                   JUNCTION     0.734    0.734     0  01:33        3.58        3.58      -0.008
  J3                   JUNCTION     0.000    0.309     0  02:33           0         6.8       0.736
  CSO7                 JUNCTION     0.185    0.185     0  01:38         1.2         1.2       0.046
  J5                   JUNCTION     0.260    0.333     0  01:38        1.46         2.3       0.023
  CSO9                 JUNCTION     0.286    0.286     0  01:36        1.53        1.53       0.031
  J8                   JUNCTION     1.150    1.278     0  01:40        7.19        8.36       0.020
  CSO8                 JUNCTION     1.213    1.213     0  01:34         5.7         5.7       0.008
  J10                  JUNCTION     0.910    1.395     0  01:31        3.87        8.01      -0.046
  J13                  JUNCTION     1.062    1.062     0  01:33        4.87        4.87      -0.197
  J15                  JUNCTION     0.000    1.999     0  01:33           0        18.2       0.651
  J16                  JUNCTION     1.563    1.563     0  01:32        6.94        6.94      -0.045
  CSO10                JUNCTION     0.514    0.514     0  01:34        2.41        2.41       0.013
  J12                  JUNCTION     0.000    1.496     0  01:33           0        11.7       5.825
  J4                   JUNCTION     0.000    0.081     0  01:20           0       0.847       0.384
  J6                   JUNCTION     0.000    0.080     0  02:23           0        1.58       0.349
  J2                   JUNCTION     0.000    0.039     0  01:41           0       0.917       0.572
  J19                  JUNCTION     0.000    0.271     0  01:35           0        6.42       0.197
  J9                   JUNCTION     0.000    0.175     0  01:43           0        3.65       0.545
  J14                  JUNCTION     0.000    0.190     0  02:31           0        4.32       0.232
  J17                  JUNCTION     0.000    0.140     0  01:57           0        2.79       0.428
  J7                   JUNCTION     0.000    0.127     0  03:05           0        1.18       0.268
  J11                  JUNCTION     0.000    0.487     0  02:26           0        4.15       0.172
  J18                  JUNCTION     0.000    0.202     0  01:57           0        1.74       0.008
  Out_to_WWTP          OUTFALL      0.000    0.271     0  01:36           0        6.41       0.000
  T5                   STORAGE      0.000    0.734     0  01:33           0        3.58      12.435
  T4                   STORAGE      0.000    0.333     0  01:38           0         2.3       5.594
  T6                   STORAGE      0.000    1.277     0  01:41           0        8.36       3.394
  T3                   STORAGE      0.000    1.576     0  02:35           0          11      13.942
  T2                   STORAGE      0.000    1.061     0  01:33           0        4.88       7.139
  T1                   STORAGE      0.000    1.972     0  01:36           0        18.1       4.744
  
  
  **********************
  Node Surcharge Summary
  **********************
  
  Surcharging occurs when water rises above the top of the highest conduit.
  ---------------------------------------------------------------------
                                               Max. Height   Min. Depth
                                   Hours       Above Crown    Below Rim
  Node                 Type      Surcharged         Meters       Meters
  ---------------------------------------------------------------------
  CSO7                 JUNCTION        2.02          0.945        0.000
  CSO9                 JUNCTION        1.98          1.682        0.000
  CSO8                 JUNCTION        1.96          1.547        0.000
  CSO10                JUNCTION        1.87          0.560        0.000
  J4                   JUNCTION        1.99          1.135        0.565
  
  
  *********************
  Node Flooding Summary
  *********************
  
  Flooding refers to all water that overflows a node, whether it ponds or not.
  --------------------------------------------------------------------------
                                                             Total   Maximum
                                 Maximum   Time of Max       Flood    Ponded
                        Hours       Rate    Occurrence      Volume     Depth
  Node                 Flooded       CMS   days hr:min    10^6 ltr    Meters
  --------------------------------------------------------------------------
  CSO7                    1.88     0.112      0  01:38       0.357     0.000
  CSO9                    1.78     0.159      0  01:36       0.347     0.000
  CSO8                    1.81     0.727      0  01:34       1.557     0.000
  CSO10                   1.82     0.312      0  01:34       0.673     0.000
  T5                      2.40     0.608      0  01:41       1.865     0.000
  T4                      1.22     0.159      0  03:01       0.433     0.000
  T6                      2.19     1.097      0  01:43       4.253     0.000
  T3                      2.46     1.386      0  02:35       2.831     0.000
  T2                      1.40     0.508      0  01:57       1.454     0.000
  T1                      6.25     1.701      0  01:36      10.153     0.000
  
  
  **********************
  Storage Volume Summary
  **********************
  
  --------------------------------------------------------------------------------------------------
                         Average     Avg  Evap Exfil       Maximum     Max    Time of Max    Maximum
                          Volume    Pcnt  Pcnt  Pcnt        Volume    Pcnt     Occurrence    Outflow
  Storage Unit           1000 m3    Full  Loss  Loss       1000 m3    Full    days hr:min        CMS
  --------------------------------------------------------------------------------------------------
  T5                       0.390      78     0     0         0.500     100       0  01:41      0.039
  T4                       0.298      60     0     0         0.500     100       0  02:22      0.080
  T6                       0.387      65     0     0         0.600     100       0  01:43      0.175
  T3                       2.016      78     0     0         2.600     100       0  02:31      0.190
  T2                       0.598      60     0     0         1.000     100       0  01:57      0.140
  T1                       0.575      82     0     0         0.700     100       0  01:35      0.271
  
  
  ***********************
  Outfall Loading Summary
  ***********************
  
  -----------------------------------------------------------
                         Flow       Avg       Max       Total
                         Freq      Flow      Flow      Volume
  Outfall Node           Pcnt       CMS       CMS    10^6 ltr
  -----------------------------------------------------------
  Out_to_WWTP           99.01     0.230     0.271       6.408
  -----------------------------------------------------------
  System                99.01     0.230     0.271       6.408
  
  
  ********************
  Link Flow Summary
  ********************
  
  -----------------------------------------------------------------------------
                                 Maximum  Time of Max   Maximum    Max/    Max/
                                  |Flow|   Occurrence   |Veloc|    Full    Full
  Link                 Type          CMS  days hr:min     m/sec    Flow   Depth
  -----------------------------------------------------------------------------
  C1                   CONDUIT     0.039     0  02:33      0.91    0.01    0.13
  C6                   CONDUIT     0.073     0  01:38      1.29    1.16    0.82
  C2                   CONDUIT     0.080     0  02:53      1.49    0.09    0.25
  C9                   CONDUIT     0.127     0  03:05      1.29    0.43    0.60
  C16                  CONDUIT     0.487     0  02:58      1.78    0.05    0.16
  C3                   CONDUIT     0.190     0  02:33      2.05    0.07    0.18
  C19                  CONDUIT     0.140     0  02:33      1.24    0.05    0.30
  C11                  CONDUIT     0.309     0  03:24      1.85    0.02    0.15
  C20                  CONDUIT     1.561     0  01:32      3.77    0.05    0.19
  C22                  CONDUIT     0.202     0  01:56      1.58    0.09    0.40
  C12                  CONDUIT     0.175     0  02:59      0.76    0.01    0.31
  C17                  CONDUIT     1.388     0  01:32      3.43    0.07    0.34
  C10                  CONDUIT     1.277     0  01:41      1.66    0.13    0.62
  C13                  CONDUIT     1.576     0  02:35      2.15    0.09    0.77
  C18                  CONDUIT     1.061     0  01:33      2.00    0.04    0.57
  C23                  CONDUIT     1.972     0  01:36      1.60    0.22    0.66
  C4                   CONDUIT     0.734     0  01:33      1.98    0.18    0.64
  C7                   CONDUIT     0.333     0  01:38      1.43    0.08    0.60
  C14                  CONDUIT     0.271     0  01:36      2.08    0.02    0.09
  C5                   CONDUIT     0.081     0  01:20      1.59    1.39    1.00
  C8                   CONDUIT     0.127     0  03:05      1.79    1.60    0.86
  C15                  CONDUIT     0.487     0  02:26      3.48    1.55    0.83
  C21                  CONDUIT     0.202     0  01:57      1.85    1.16    0.69
  V4                   ORIFICE     0.080     0  02:23                      1.00
  V5                   ORIFICE     0.039     0  01:41                      1.00
  V1                   ORIFICE     0.271     0  01:35                      1.00
  V6                   ORIFICE     0.175     0  01:43                      1.00
  V3                   ORIFICE     0.190     0  02:31                      1.00
  V2                   ORIFICE     0.140     0  01:57                      1.00
  
  
  ***************************
  Flow Classification Summary
  ***************************
  
  -------------------------------------------------------------------------------------
                      Adjusted    ---------- Fraction of Time in Flow Class ---------- 
                       /Actual         Up    Down  Sub   Sup   Up    Down  Norm  Inlet 
  Conduit               Length    Dry  Dry   Dry   Crit  Crit  Crit  Crit  Ltd   Ctrl  
  -------------------------------------------------------------------------------------
  C1                      1.00   0.00  0.00  0.00  0.92  0.08  0.00  0.00  0.95  0.00
  C6                      1.00   0.00  0.00  0.00  0.28  0.72  0.00  0.00  0.00  0.00
  C2                      1.00   0.00  0.00  0.00  0.01  0.99  0.00  0.00  0.94  0.00
  C9                      1.00   0.00  0.00  0.00  1.00  0.00  0.00  0.00  1.00  0.00
  C16                     1.00   0.00  0.00  0.00  0.54  0.46  0.00  0.00  0.44  0.00
  C3                      1.00   0.00  0.00  0.00  0.05  0.94  0.00  0.00  0.07  0.00
  C19                     1.00   0.00  0.00  0.00  0.61  0.39  0.00  0.00  1.00  0.00
  C11                     1.00   0.00  0.00  0.00  0.33  0.67  0.00  0.00  1.00  0.00
  C20                     1.00   0.00  0.00  0.00  0.62  0.38  0.00  0.00  0.98  0.00
  C22                     1.00   0.00  0.00  0.00  0.94  0.06  0.00  0.00  1.00  0.00
  C12                     1.00   0.00  0.00  0.00  0.94  0.05  0.00  0.00  1.00  0.00
  C17                     1.00   0.00  0.00  0.00  0.72  0.28  0.00  0.00  0.94  0.00
  C10                     1.00   0.00  0.00  0.00  0.94  0.06  0.00  0.00  0.97  0.00
  C13                     1.00   0.00  0.00  0.00  0.83  0.17  0.00  0.00  0.17  0.00
  C18                     1.00   0.00  0.00  0.00  0.84  0.16  0.00  0.00  0.97  0.00
  C23                     1.00   0.00  0.00  0.00  0.90  0.10  0.00  0.00  0.94  0.00
  C4                      1.00   0.00  0.00  0.00  0.96  0.04  0.00  0.00  0.98  0.00
  C7                      1.00   0.00  0.00  0.00  0.89  0.11  0.00  0.00  0.96  0.00
  C14                     1.00   0.00  0.00  0.00  0.00  0.99  0.00  0.00  0.00  0.00
  C5                      1.00   0.00  0.00  0.00  0.94  0.06  0.00  0.00  0.70  0.00
  C8                      1.00   0.00  0.00  0.00  0.26  0.74  0.00  0.00  0.00  0.00
  C15                     1.00   0.00  0.00  0.00  0.00  1.00  0.00  0.00  0.00  0.00
  C21                     1.00   0.00  0.00  0.00  0.00  1.00  0.00  0.00  0.00  0.00
  
  
  *************************
  Conduit Surcharge Summary
  *************************
  
  ----------------------------------------------------------------------------
                                                           Hours        Hours 
                         --------- Hours Full --------   Above Full   Capacity
  Conduit                Both Ends  Upstream  Dnstream   Normal Flow   Limited
  ----------------------------------------------------------------------------
  C6                          0.01      1.99      0.01      1.90         0.01
  C10                         0.01      0.01      6.37      0.01         0.01
  C13                         0.01      0.01      6.19      0.01         0.01
  C18                         0.01      0.01      5.58      0.01         0.01
  C23                         0.01      0.01      6.46      0.01         0.01
  C4                          0.01      0.01      6.50      0.01         0.01
  C7                          0.01      0.01      6.33      0.01         0.01
  C5                          1.98      2.02      2.08      2.02         1.95
  C8                          0.01      1.98      0.01      2.00         0.01
  C15                         0.01      1.96      0.01      1.99         0.01
  C21                         0.01      1.87      0.01      1.86         0.01
  

  Analysis begun on:  Fri Sep  3 17:57:08 2021
  Analysis ended on:  Fri Sep  3 17:57:08 2021
  Total elapsed time: < 1 sec