
  EPA STORM WATER MANAGEMENT MODEL - VERSION 5.1 (Build 5.3.0.dev0)
  --------------------------------------------------------------

  
  *********************************************************
  NOTE: The summary statistics displayed in this report are
  based on results found at every computational time step,  
  not just on results from each reporting time step.
  *********************************************************
  
  ****************
  Analysis Options
  ****************
  Flow Units ............... CMS
  Process Models:
    Rainfall/Runoff ........ YES
    RDII ................... NO
    Snowmelt ............... NO
    Groundwater ............ NO
    Flow Routing ........... YES
    Ponding Allowed ........ YES
    Water Quality .......... NO
  Infiltration Method ...... HORTON
  Flow Routing Method ...... DYNWAVE
  Surcharge Method ......... EXTRAN
  Starting Date ............ 08/28/2015 08:00:00
  Ending Date .............. 08/28/2015 15:50:00
  Antecedent Dry Days ...... 0.0
  Report Time Step ......... 00:01:00
  Wet Time Step ............ 00:01:00
  Dry Time Step ............ 00:01:00
  Routing Time Step ........ 5.00 sec
  Variable Time Step ....... YES
  Maximum Trials ........... 8
  Number of Threads ........ 1
  Head Tolerance ........... 0.001500 m
  
  
  **************************        Volume         Depth
  Runoff Quantity Continuity     hectare-m            mm
  **************************     ---------       -------
  Total Precipitation ......         2.031        11.270
  Evaporation Loss .........         0.000         0.000
  Infiltration Loss ........         0.000         0.000
  Surface Runoff ...........         2.008        11.141
  Final Storage ............         0.024         0.131
  Continuity Error (%) .....        -0.012
  
  
  **************************        Volume        Volume
  Flow Routing Continuity        hectare-m      10^6 ltr
  **************************     ---------     ---------
  Dry Weather Inflow .......         0.396         3.955
  Wet Weather Inflow .......         2.008        20.076
  Groundwater Inflow .......         0.000         0.000
  RDII Inflow ..............         0.000         0.000
  External Inflow ..........         0.000         0.000
  External Outflow .........         0.632         6.320
  Flooding Loss ............         0.944         9.443
  Evaporation Loss .........         0.000         0.000
  Exfiltration Loss ........         0.000         0.000
  Initial Stored Volume ....         0.000         0.000
  Final Stored Volume ......         0.672         6.721
  Continuity Error (%) .....         6.439
  
  
  *************************
  Highest Continuity Errors
  *************************
  Node T5 (17.36%)
  Node T3 (15.77%)
  Node T2 (9.24%)
  Node J12 (6.89%)
  Node T4 (6.46%)
  
  
  ***************************
  Time-Step Critical Elements
  ***************************
  None
  
  
  ********************************
  Highest Flow Instability Indexes
  ********************************
  All links are stable.
  
  
  *************************
  Routing Time Step Summary
  *************************
  Minimum Time Step           :     4.50 sec
  Average Time Step           :     5.00 sec
  Maximum Time Step           :     5.00 sec
  Percent in Steady State     :     0.00
  Average Iterations per Step :     2.24
  Percent Not Converging      :     0.67
  
  
  ***************************
  Subcatchment Runoff Summary
  ***************************
  
  ------------------------------------------------------------------------------------------------------------------------------
                            Total      Total      Total      Total     Imperv       Perv      Total       Total     Peak  Runoff
                           Precip      Runon       Evap      Infil     Runoff     Runoff     Runoff      Runoff   Runoff   Coeff
  Subcatchment                 mm         mm         mm         mm         mm         mm         mm    10^6 ltr      CMS
  ------------------------------------------------------------------------------------------------------------------------------
  SC01                      11.27       0.00       0.00       0.00      11.19       0.00      11.19        3.69     0.77   0.992
  SC02                      11.27       0.00       0.00       0.00      11.18       0.00      11.18        2.54     0.52   0.992
  SC03                      11.27       0.00       0.00       0.00      11.20       0.00      11.20        2.02     0.44   0.994
  SC04                      11.27       0.00       0.00       0.00      11.08       0.00      11.08        0.76     0.14   0.983
  SC05                      11.27       0.00       0.00       0.00      11.18       0.00      11.18        1.74     0.36   0.992
  SC06                      11.27       0.00       0.00       0.00      11.02       0.00      11.02        3.59     0.63   0.978
  SC07                      11.27       0.00       0.00       0.00      11.08       0.00      11.08        0.53     0.10   0.983
  SC08                      11.27       0.00       0.00       0.00      11.15       0.00      11.15        3.12     0.61   0.990
  SC09                      11.27       0.00       0.00       0.00      11.13       0.00      11.13        0.77     0.15   0.987
  SC010                     11.27       0.00       0.00       0.00      11.16       0.00      11.16        1.31     0.26   0.990
  
  
  ******************
  Node Depth Summary
  ******************
  
  ---------------------------------------------------------------------------------
                                 Average  Maximum  Maximum  Time of Max    Reported
                                   Depth    Depth      HGL   Occurrence   Max Depth
  Node                 Type       Meters   Meters   Meters  days hr:min      Meters
  ---------------------------------------------------------------------------------
  J1                   JUNCTION     0.08     0.20    34.20     0  02:33        0.20
  J3                   JUNCTION     0.14     0.17    18.17     0  03:35        0.17
  CSO7                 JUNCTION     0.23     1.20    35.20     0  02:15        1.20
  J5                   JUNCTION     0.07     0.16    32.16     0  02:36        0.16
  CSO9                 JUNCTION     0.29     2.00    42.00     0  02:25        2.00
  J8                   JUNCTION     0.13     0.29    36.29     0  02:38        0.29
  CSO8                 JUNCTION     0.32     2.00    34.00     0  02:23        2.00
  J10                  JUNCTION     0.11     0.29    29.29     0  02:32        0.29
  J13                  JUNCTION     0.07     0.20    29.20     0  02:33        0.20
  J15                  JUNCTION     0.23     0.39    15.39     0  02:37        0.39
  J16                  JUNCTION     0.08     0.22    30.22     0  02:33        0.22
  CSO10                JUNCTION     0.19     1.00    31.00     0  02:23        1.00
  J12                  JUNCTION     0.68     1.03    27.03     0  03:19        1.03
  J4                   JUNCTION     0.19     1.17    34.17     0  02:15        0.77
  J6                   JUNCTION     0.09     0.12    25.12     0  03:31        0.12
  J2                   JUNCTION     0.07     0.08    25.08     0  03:23        0.08
  J19                  JUNCTION     0.15     0.17     8.17     0  02:02        0.17
  J9                   JUNCTION     0.13     0.16    29.16     0  03:42        0.16
  J14                  JUNCTION     0.15     0.19    20.19     0  06:09        0.19
  J17                  JUNCTION     0.11     0.15    20.15     0  03:17        0.15
  J7                   JUNCTION     0.10     0.23    39.23     0  02:50        0.23
  J11                  JUNCTION     0.12     0.30    31.30     0  02:51        0.30
  J18                  JUNCTION     0.07     0.16    29.16     0  02:52        0.16
  Out_to_WWTP          OUTFALL      0.15     0.17     6.17     0  02:01        0.17
  T5                   STORAGE      3.64     5.00    32.00     0  02:32        5.00
  T4                   STORAGE      2.36     4.55    31.55     0  03:30        4.55
  T6                   STORAGE      2.94     5.00    36.00     0  02:28        5.00
  T3                   STORAGE      3.61     5.00    27.00     0  03:11        5.00
  T2                   STORAGE      2.36     4.63    25.63     0  03:16        4.63
  T1                   STORAGE      4.01     5.00    15.00     0  02:01        5.00
  
  
  *******************
  Node Inflow Summary
  *******************
  
  -------------------------------------------------------------------------------------------------
                                  Maximum  Maximum                  Lateral       Total        Flow
                                  Lateral    Total  Time of Max      Inflow      Inflow     Balance
                                   Inflow   Inflow   Occurrence      Volume      Volume       Error
  Node                 Type           CMS      CMS  days hr:min    10^6 ltr    10^6 ltr     Percent
  -------------------------------------------------------------------------------------------------
  J1                   JUNCTION     0.377    0.377     0  02:33        2.31        2.31      -0.013
  J3                   JUNCTION     0.000    0.305     0  03:33           0         6.4       0.765
  CSO7                 JUNCTION     0.106    0.106     0  02:36       0.817       0.817       0.058
  J5                   JUNCTION     0.143    0.214     0  02:36       0.892        1.64       0.044
  CSO9                 JUNCTION     0.153    0.153     0  02:35       0.964       0.964       0.037
  J8                   JUNCTION     0.660    0.787     0  02:37        4.53        5.46       0.041
  CSO8                 JUNCTION     0.623    0.623     0  02:34        3.42        3.42       0.008
  J10                  JUNCTION     0.453    0.941     0  02:31         2.4        5.67      -0.053
  J13                  JUNCTION     0.538    0.538     0  02:33        3.01        3.01      -0.245
  J15                  JUNCTION     0.000    1.345     0  02:34           0        14.4       0.807
  J16                  JUNCTION     0.785    0.785     0  02:32        4.25        4.25      -0.050
  CSO10                JUNCTION     0.264    0.264     0  02:34        1.45        1.45       0.018
  J12                  JUNCTION     0.000    1.112     0  02:32           0        9.13       7.404
  J4                   JUNCTION     0.000    0.071     0  02:36           0       0.755       0.446
  J6                   JUNCTION     0.000    0.076     0  03:30           0         1.4       0.372
  J2                   JUNCTION     0.000    0.039     0  02:32           0       0.882       0.598
  J19                  JUNCTION     0.000    0.271     0  02:01           0        6.33       0.200
  J9                   JUNCTION     0.000    0.175     0  02:28           0        3.47       0.524
  J14                  JUNCTION     0.000    0.190     0  03:11           0        4.13       0.242
  J17                  JUNCTION     0.000    0.135     0  03:16           0        2.47       0.446
  J7                   JUNCTION     0.000    0.127     0  02:50           0       0.939       0.339
  J11                  JUNCTION     0.000    0.486     0  02:51           0        3.28       0.208
  J18                  JUNCTION     0.000    0.202     0  02:52           0        1.39       0.017
  Out_to_WWTP          OUTFALL      0.000    0.271     0  02:02           0        6.32       0.000
  T5                   STORAGE      0.000    0.377     0  02:33           0        2.31      21.013
  T4                   STORAGE      0.000    0.214     0  02:36           0        1.64       6.909
  T6                   STORAGE      0.000    0.787     0  02:38           0        5.46       5.177
  T3                   STORAGE      0.000    1.104     0  02:35           0         8.5      18.718
  T2                   STORAGE      0.000    0.538     0  02:33           0        3.02      10.186
  T1                   STORAGE      0.000    1.333     0  02:37           0        14.3       6.156
  
  
  **********************
  Node Surcharge Summary
  **********************
  
  Surcharging occurs when water rises above the top of the highest conduit.
  ---------------------------------------------------------------------
                                               Max. Height   Min. Depth
                                   Hours       Above Crown    Below Rim
  Node                 Type      Surcharged         Meters       Meters
  ---------------------------------------------------------------------
  CSO7                 JUNCTION        1.01          0.945        0.000
  CSO9                 JUNCTION        1.18          1.682        0.000
  CSO8                 JUNCTION        1.15          1.547        0.000
  CSO10                JUNCTION        0.69          0.560        0.000
  J4                   JUNCTION        0.97          0.873        0.827
  
  
  *********************
  Node Flooding Summary
  *********************
  
  Flooding refers to all water that overflows a node, whether it ponds or not.
  --------------------------------------------------------------------------
                                                             Total   Maximum
                                 Maximum   Time of Max       Flood    Ponded
                        Hours       Rate    Occurrence      Volume     Depth
  Node                 Flooded       CMS   days hr:min    10^6 ltr    Meters
  --------------------------------------------------------------------------
  CSO7                    0.82     0.035      0  02:36       0.061     0.000
  CSO9                    0.43     0.026      0  02:34       0.025     0.000
  CSO8                    0.46     0.137      0  02:34       0.136     0.000
  CSO10                   0.48     0.062      0  02:34       0.063     0.000
  T5                      1.36     0.338      0  02:33       0.623     0.000
  T6                      1.30     0.612      0  02:38       1.550     0.000
  T3                      1.48     0.551      0  03:11       0.526     0.000
  T1                      5.82     1.062      0  02:37       6.459     0.000
  
  
  **********************
  Storage Volume Summary
  **********************
  
  --------------------------------------------------------------------------------------------------
                         Average     Avg  Evap Exfil       Maximum     Max    Time of Max    Maximum
                          Volume    Pcnt  Pcnt  Pcnt        Volume    Pcnt     Occurrence    Outflow
  Storage Unit           1000 m3    Full  Loss  Loss       1000 m3    Full    days hr:min        CMS
  --------------------------------------------------------------------------------------------------
  T5                       0.364      73     0     0         0.500     100       0  02:32      0.039
  T4                       0.236      47     0     0         0.455      91       0  03:30      0.076
  T6                       0.352      59     0     0         0.600     100       0  02:28      0.175
  T3                       1.876      72     0     0         2.600     100       0  03:11      0.237
  T2                       0.471      47     0     0         0.926      93       0  03:16      0.135
  T1                       0.561      80     0     0         0.700     100       0  02:01      0.271
  
  
  ***********************
  Outfall Loading Summary
  ***********************
  
  -----------------------------------------------------------
                         Flow       Avg       Max       Total
                         Freq      Flow      Flow      Volume
  Outfall Node           Pcnt       CMS       CMS    10^6 ltr
  -----------------------------------------------------------
  Out_to_WWTP           99.01     0.226     0.271       6.320
  -----------------------------------------------------------
  System                99.01     0.226     0.271       6.320
  
  
  ********************
  Link Flow Summary
  ********************
  
  -----------------------------------------------------------------------------
                                 Maximum  Time of Max   Maximum    Max/    Max/
                                  |Flow|   Occurrence   |Veloc|    Full    Full
  Link                 Type          CMS  days hr:min     m/sec    Flow   Depth
  -----------------------------------------------------------------------------
  C1                   CONDUIT     0.039     0  03:23      0.91    0.01    0.12
  C6                   CONDUIT     0.071     0  02:36      1.29    1.13    0.76
  C2                   CONDUIT     0.076     0  03:31      1.44    0.09    0.24
  C9                   CONDUIT     0.127     0  02:50      1.27    0.43    0.52
  C16                  CONDUIT     0.489     0  02:29      1.78    0.05    0.15
  C3                   CONDUIT     0.190     0  03:14      2.05    0.07    0.18
  C19                  CONDUIT     0.135     0  03:17      1.22    0.05    0.26
  C11                  CONDUIT     0.305     0  03:35      1.85    0.02    0.14
  C20                  CONDUIT     0.785     0  02:33      2.94    0.02    0.15
  C22                  CONDUIT     0.202     0  02:52      1.44    0.09    0.35
  C12                  CONDUIT     0.175     0  03:42      0.80    0.01    0.30
  C17                  CONDUIT     0.938     0  02:32      2.93    0.05    0.30
  C10                  CONDUIT     0.787     0  02:38      1.66    0.08    0.60
  C13                  CONDUIT     1.104     0  02:35      2.04    0.06    0.76
  C18                  CONDUIT     0.538     0  02:33      2.04    0.02    0.55
  C23                  CONDUIT     1.333     0  02:37      1.38    0.15    0.63
  C4                   CONDUIT     0.377     0  02:33      1.98    0.09    0.60
  C7                   CONDUIT     0.214     0  02:36      1.43    0.05    0.58
  C14                  CONDUIT     0.271     0  02:02      2.08    0.02    0.09
  C5                   CONDUIT     0.071     0  02:36      1.39    1.22    1.00
  C8                   CONDUIT     0.127     0  02:50      1.75    1.60    0.86
  C15                  CONDUIT     0.486     0  02:51      3.42    1.55    0.83
  C21                  CONDUIT     0.202     0  02:52      1.83    1.16    0.69
  V4                   ORIFICE     0.076     0  03:30                      1.00
  V5                   ORIFICE     0.039     0  02:32                      1.00
  V1                   ORIFICE     0.271     0  02:01                      1.00
  V6                   ORIFICE     0.175     0  02:28                      1.00
  V3                   ORIFICE     0.190     0  03:11                      1.00
  V2                   ORIFICE     0.135     0  03:16                      1.00
  
  
  ***************************
  Flow Classification Summary
  ***************************
  
  -------------------------------------------------------------------------------------
                      Adjusted    ---------- Fraction of Time in Flow Class ---------- 
                       /Actual         Up    Down  Sub   Sup   Up    Down  Norm  Inlet 
  Conduit               Length    Dry  Dry   Dry   Crit  Crit  Crit  Crit  Ltd   Ctrl  
  -------------------------------------------------------------------------------------
  C1                      1.00   0.00  0.00  0.00  0.92  0.08  0.00  0.00  0.95  0.00
  C6                      1.00   0.00  0.00  0.00  0.16  0.84  0.00  0.00  0.00  0.00
  C2                      1.00   0.00  0.00  0.00  0.01  0.99  0.00  0.00  0.94  0.00
  C9                      1.00   0.00  0.00  0.00  0.99  0.01  0.00  0.00  1.00  0.00
  C16                     1.00   0.00  0.00  0.00  0.54  0.46  0.00  0.00  0.42  0.00
  C3                      1.00   0.00  0.00  0.00  0.05  0.94  0.00  0.00  0.07  0.00
  C19                     1.00   0.00  0.00  0.00  0.66  0.34  0.00  0.00  1.00  0.00
  C11                     1.00   0.00  0.00  0.00  0.32  0.68  0.00  0.00  1.00  0.00
  C20                     1.00   0.00  0.00  0.00  0.63  0.37  0.00  0.00  0.98  0.00
  C22                     1.00   0.00  0.00  0.00  0.85  0.15  0.00  0.00  1.00  0.00
  C12                     1.00   0.00  0.00  0.00  0.94  0.05  0.00  0.00  1.00  0.00
  C17                     1.00   0.00  0.00  0.00  0.64  0.36  0.00  0.00  0.94  0.00
  C10                     1.00   0.00  0.00  0.00  0.94  0.06  0.00  0.00  0.97  0.00
  C13                     1.00   0.00  0.00  0.00  0.83  0.17  0.00  0.00  0.25  0.00
  C18                     1.00   0.00  0.00  0.00  0.84  0.16  0.00  0.00  0.97  0.00
  C23                     1.00   0.00  0.00  0.00  0.90  0.10  0.00  0.00  0.94  0.00
  C4                      1.00   0.00  0.00  0.00  0.96  0.04  0.00  0.00  0.98  0.00
  C7                      1.00   0.00  0.00  0.00  0.89  0.11  0.00  0.00  0.96  0.00
  C14                     1.00   0.00  0.00  0.00  0.00  0.99  0.00  0.00  0.00  0.00
  C5                      1.00   0.00  0.00  0.00  0.93  0.07  0.00  0.00  0.82  0.00
  C8                      1.00   0.00  0.00  0.00  0.25  0.75  0.00  0.00  0.00  0.00
  C15                     1.00   0.00  0.00  0.00  0.00  1.00  0.00  0.00  0.00  0.00
  C21                     1.00   0.00  0.00  0.00  0.01  0.99  0.00  0.00  0.00  0.00
  
  
  *************************
  Conduit Surcharge Summary
  *************************
  
  ----------------------------------------------------------------------------
                                                           Hours        Hours 
                         --------- Hours Full --------   Above Full   Capacity
  Conduit                Both Ends  Upstream  Dnstream   Normal Flow   Limited
  ----------------------------------------------------------------------------
  C6                          0.01      0.97      0.01      0.87         0.01
  C10                         0.01      0.01      6.11      0.01         0.01
  C13                         0.01      0.01      5.78      0.01         0.01
  C18                         0.01      0.01      4.52      0.01         0.01
  C23                         0.01      0.01      6.42      0.01         0.01
  C4                          0.01      0.01      6.46      0.01         0.01
  C7                          0.01      0.01      6.10      0.01         0.01
  C5                          1.01      1.01      1.15      1.11         0.98
  C8                          0.01      1.18      0.01      1.20         0.01
  C15                         0.01      1.15      0.01      1.29         0.01
  C21                         0.01      0.69      0.01      0.68         0.01
  

  Analysis begun on:  Fri Sep  3 17:56:10 2021
  Analysis ended on:  Fri Sep  3 17:56:10 2021
  Total elapsed time: < 1 sec