
  EPA STORM WATER MANAGEMENT MODEL - VERSION 5.1 (Build 5.3.0.dev0)
  --------------------------------------------------------------

  
  *********************************************************
  NOTE: The summary statistics displayed in this report are
  based on results found at every computational time step,  
  not just on results from each reporting time step.
  *********************************************************
  
  ****************
  Analysis Options
  ****************
  Flow Units ............... CMS
  Process Models:
    Rainfall/Runoff ........ YES
    RDII ................... NO
    Snowmelt ............... NO
    Groundwater ............ NO
    Flow Routing ........... YES
    Ponding Allowed ........ YES
    Water Quality .......... NO
  Infiltration Method ...... HORTON
  Flow Routing Method ...... DYNWAVE
  Surcharge Method ......... EXTRAN
  Starting Date ............ 08/28/2015 08:00:00
  Ending Date .............. 08/28/2015 15:50:00
  Antecedent Dry Days ...... 0.0
  Report Time Step ......... 00:01:00
  Wet Time Step ............ 00:01:00
  Dry Time Step ............ 00:01:00
  Routing Time Step ........ 5.00 sec
  Variable Time Step ....... YES
  Maximum Trials ........... 8
  Number of Threads ........ 1
  Head Tolerance ........... 0.001500 m
  
  
  **************************        Volume         Depth
  Runoff Quantity Continuity     hectare-m            mm
  **************************     ---------       -------
  Total Precipitation ......         1.127         6.255
  Evaporation Loss .........         0.000         0.000
  Infiltration Loss ........         0.000         0.000
  Surface Runoff ...........         1.104         6.126
  Final Storage ............         0.023         0.130
  Continuity Error (%) .....        -0.007
  
  
  **************************        Volume        Volume
  Flow Routing Continuity        hectare-m      10^6 ltr
  **************************     ---------     ---------
  Dry Weather Inflow .......         0.396         3.955
  Wet Weather Inflow .......         1.104        11.038
  Groundwater Inflow .......         0.000         0.000
  RDII Inflow ..............         0.000         0.000
  External Inflow ..........         0.000         0.000
  External Outflow .........         0.592         5.917
  Flooding Loss ............         0.273         2.726
  Evaporation Loss .........         0.000         0.000
  Exfiltration Loss ........         0.000         0.000
  Initial Stored Volume ....         0.000         0.000
  Final Stored Volume ......         0.509         5.087
  Continuity Error (%) .....         8.430
  
  
  *************************
  Highest Continuity Errors
  *************************
  Node T5 (24.24%)
  Node T3 (16.65%)
  Node T1 (8.15%)
  Node T6 (7.28%)
  Node T4 (4.86%)
  
  
  ***************************
  Time-Step Critical Elements
  ***************************
  None
  
  
  ********************************
  Highest Flow Instability Indexes
  ********************************
  All links are stable.
  
  
  *************************
  Routing Time Step Summary
  *************************
  Minimum Time Step           :     4.50 sec
  Average Time Step           :     5.00 sec
  Maximum Time Step           :     5.00 sec
  Percent in Steady State     :     0.00
  Average Iterations per Step :     2.07
  Percent Not Converging      :     0.46
  
  
  ***************************
  Subcatchment Runoff Summary
  ***************************
  
  ------------------------------------------------------------------------------------------------------------------------------
                            Total      Total      Total      Total     Imperv       Perv      Total       Total     Peak  Runoff
                           Precip      Runon       Evap      Infil     Runoff     Runoff     Runoff      Runoff   Runoff   Coeff
  Subcatchment                 mm         mm         mm         mm         mm         mm         mm    10^6 ltr      CMS
  ------------------------------------------------------------------------------------------------------------------------------
  SC01                       6.25       0.00       0.00       0.00       6.17       0.00       6.17        2.04     0.46   0.986
  SC02                       6.25       0.00       0.00       0.00       6.16       0.00       6.16        1.40     0.31   0.985
  SC03                       6.25       0.00       0.00       0.00       6.19       0.00       6.19        1.11     0.26   0.989
  SC04                       6.25       0.00       0.00       0.00       6.06       0.00       6.06        0.42     0.08   0.969
  SC05                       6.25       0.00       0.00       0.00       6.16       0.00       6.16        0.96     0.21   0.985
  SC06                       6.25       0.00       0.00       0.00       6.01       0.00       6.01        1.96     0.38   0.961
  SC07                       6.25       0.00       0.00       0.00       6.06       0.00       6.06        0.29     0.06   0.969
  SC08                       6.25       0.00       0.00       0.00       6.14       0.00       6.14        1.72     0.37   0.981
  SC09                       6.25       0.00       0.00       0.00       6.11       0.00       6.11        0.42     0.09   0.977
  SC010                      6.25       0.00       0.00       0.00       6.14       0.00       6.14        0.72     0.16   0.982
  
  
  ******************
  Node Depth Summary
  ******************
  
  ---------------------------------------------------------------------------------
                                 Average  Maximum  Maximum  Time of Max    Reported
                                   Depth    Depth      HGL   Occurrence   Max Depth
  Node                 Type       Meters   Meters   Meters  days hr:min      Meters
  ---------------------------------------------------------------------------------
  J1                   JUNCTION     0.07     0.16    34.16     0  03:01        0.16
  J3                   JUNCTION     0.13     0.16    18.16     0  04:27        0.16
  CSO7                 JUNCTION     0.11     1.20    35.20     0  03:01        0.89
  J5                   JUNCTION     0.06     0.13    32.13     0  03:02        0.13
  CSO9                 JUNCTION     0.12     0.88    40.88     0  03:01        0.88
  J8                   JUNCTION     0.11     0.23    36.23     0  03:01        0.23
  CSO8                 JUNCTION     0.14     1.01    33.01     0  03:01        1.01
  J10                  JUNCTION     0.09     0.24    29.24     0  03:01        0.24
  J13                  JUNCTION     0.06     0.15    29.15     0  03:01        0.15
  J15                  JUNCTION     0.19     0.32    15.32     0  03:02        0.32
  J16                  JUNCTION     0.07     0.17    30.17     0  03:01        0.17
  CSO10                JUNCTION     0.12     0.37    30.37     0  03:01        0.36
  J12                  JUNCTION     0.15     0.29    26.29     0  03:03        0.29
  J4                   JUNCTION     0.13     1.01    34.01     0  03:01        0.59
  J6                   JUNCTION     0.08     0.10    25.10     0  03:40        0.10
  J2                   JUNCTION     0.06     0.08    25.08     0  03:59        0.08
  J19                  JUNCTION     0.14     0.17     8.17     0  02:46        0.17
  J9                   JUNCTION     0.12     0.16    29.16     0  03:43        0.16
  J14                  JUNCTION     0.14     0.18    20.18     0  06:12        0.18
  J17                  JUNCTION     0.09     0.12    20.12     0  03:25        0.12
  J7                   JUNCTION     0.08     0.19    39.19     0  03:01        0.19
  J11                  JUNCTION     0.10     0.26    31.26     0  03:01        0.26
  J18                  JUNCTION     0.05     0.14    29.14     0  03:02        0.14
  Out_to_WWTP          OUTFALL      0.14     0.17     6.17     0  02:44        0.17
  T5                   STORAGE      2.99     4.55    31.55     0  03:57        4.55
  T4                   STORAGE      1.21     2.47    29.47     0  03:38        2.47
  T6                   STORAGE      2.42     4.92    35.92     0  03:41        4.92
  T3                   STORAGE      2.62     4.08    26.08     0  05:54        4.08
  T2                   STORAGE      1.11     2.33    23.33     0  03:23        2.33
  T1                   STORAGE      3.65     5.00    15.00     0  02:44        5.00
  
  
  *******************
  Node Inflow Summary
  *******************
  
  -------------------------------------------------------------------------------------------------
                                  Maximum  Maximum                  Lateral       Total        Flow
                                  Lateral    Total  Time of Max      Inflow      Inflow     Balance
                                   Inflow   Inflow   Occurrence      Volume      Volume       Error
  Node                 Type           CMS      CMS  days hr:min    10^6 ltr    10^6 ltr     Percent
  -------------------------------------------------------------------------------------------------
  J1                   JUNCTION     0.236    0.236     0  03:01        1.52        1.52       0.032
  J3                   JUNCTION     0.000    0.258     0  04:25           0        5.22       0.844
  CSO7                 JUNCTION     0.070    0.070     0  03:01       0.578       0.578       0.081
  J5                   JUNCTION     0.089    0.156     0  03:01       0.546        1.12       0.112
  CSO9                 JUNCTION     0.097    0.097     0  03:01       0.618       0.618       0.075
  J8                   JUNCTION     0.418    0.510     0  03:01         2.9        3.51       0.118
  CSO8                 JUNCTION     0.380    0.380     0  03:01        2.01        2.01       0.024
  J10                  JUNCTION     0.274    0.642     0  03:01         1.5         3.5       0.141
  J13                  JUNCTION     0.331    0.331     0  03:01        1.87        1.87      -0.237
  J15                  JUNCTION     0.000    0.931     0  03:01           0        10.3       1.002
  J16                  JUNCTION     0.479    0.479     0  03:01        2.59        2.59      -0.011
  CSO10                JUNCTION     0.162    0.162     0  03:01       0.861       0.861       0.048
  J12                  JUNCTION     0.000    0.778     0  03:01           0        6.57       0.472
  J4                   JUNCTION     0.000    0.070     0  03:01           0       0.578       0.581
  J6                   JUNCTION     0.000    0.056     0  03:38           0       0.997       0.404
  J2                   JUNCTION     0.000    0.037     0  03:57           0       0.786       0.652
  J19                  JUNCTION     0.000    0.271     0  02:44           0        5.93       0.214
  J9                   JUNCTION     0.000    0.173     0  03:41           0        3.09       0.682
  J14                  JUNCTION     0.000    0.171     0  05:54           0        3.45       0.269
  J17                  JUNCTION     0.000    0.095     0  03:23           0        1.67       0.466
  J7                   JUNCTION     0.000    0.097     0  03:01           0       0.618       0.515
  J11                  JUNCTION     0.000    0.380     0  03:01           0        2.01       0.302
  J18                  JUNCTION     0.000    0.160     0  03:01           0        0.86       0.083
  Out_to_WWTP          OUTFALL      0.000    0.271     0  02:46           0        5.92       0.000
  T5                   STORAGE      0.000    0.234     0  03:01           0        1.52      31.998
  T4                   STORAGE      0.000    0.152     0  03:02           0        1.12       5.113
  T6                   STORAGE      0.000    0.502     0  03:01           0        3.51       7.850
  T3                   STORAGE      0.000    0.761     0  03:03           0        6.54      19.981
  T2                   STORAGE      0.000    0.327     0  03:01           0        1.87       5.038
  T1                   STORAGE      0.000    0.904     0  03:02           0        10.2       8.868
  
  
  **********************
  Node Surcharge Summary
  **********************
  
  Surcharging occurs when water rises above the top of the highest conduit.
  ---------------------------------------------------------------------
                                               Max. Height   Min. Depth
                                   Hours       Above Crown    Below Rim
  Node                 Type      Surcharged         Meters       Meters
  ---------------------------------------------------------------------
  CSO7                 JUNCTION        0.18          0.945        0.000
  CSO9                 JUNCTION        0.24          0.560        1.122
  CSO8                 JUNCTION        0.17          0.558        0.989
  J4                   JUNCTION        0.14          0.707        0.993
  
  
  *********************
  Node Flooding Summary
  *********************
  
  Flooding refers to all water that overflows a node, whether it ponds or not.
  --------------------------------------------------------------------------
                                                             Total   Maximum
                                 Maximum   Time of Max       Flood    Ponded
                        Hours       Rate    Occurrence      Volume     Depth
  Node                 Flooded       CMS   days hr:min    10^6 ltr    Meters
  --------------------------------------------------------------------------
  CSO7                    0.01     0.004      0  03:01       0.000     0.000
  T1                      5.09     0.633      0  03:02       2.726     0.000
  
  
  **********************
  Storage Volume Summary
  **********************
  
  --------------------------------------------------------------------------------------------------
                         Average     Avg  Evap Exfil       Maximum     Max    Time of Max    Maximum
                          Volume    Pcnt  Pcnt  Pcnt        Volume    Pcnt     Occurrence    Outflow
  Storage Unit           1000 m3    Full  Loss  Loss       1000 m3    Full    days hr:min        CMS
  --------------------------------------------------------------------------------------------------
  T5                       0.299      60     0     0         0.455      91       0  03:57      0.037
  T4                       0.121      24     0     0         0.247      49       0  03:38      0.056
  T6                       0.291      48     0     0         0.590      98       0  03:41      0.173
  T3                       1.364      52     0     0         2.122      82       0  05:54      0.171
  T2                       0.222      22     0     0         0.466      47       0  03:23      0.095
  T1                       0.511      73     0     0         0.700     100       0  02:44      0.271
  
  
  ***********************
  Outfall Loading Summary
  ***********************
  
  -----------------------------------------------------------
                         Flow       Avg       Max       Total
                         Freq      Flow      Flow      Volume
  Outfall Node           Pcnt       CMS       CMS    10^6 ltr
  -----------------------------------------------------------
  Out_to_WWTP           99.01     0.212     0.271       5.917
  -----------------------------------------------------------
  System                99.01     0.212     0.271       5.917
  
  
  ********************
  Link Flow Summary
  ********************
  
  -----------------------------------------------------------------------------
                                 Maximum  Time of Max   Maximum    Max/    Max/
                                  |Flow|   Occurrence   |Veloc|    Full    Full
  Link                 Type          CMS  days hr:min     m/sec    Flow   Depth
  -----------------------------------------------------------------------------
  C1                   CONDUIT     0.037     0  03:59      0.91    0.01    0.12
  C6                   CONDUIT     0.069     0  03:01      1.29    1.09    0.72
  C2                   CONDUIT     0.056     0  03:40      1.25    0.06    0.22
  C9                   CONDUIT     0.093     0  03:01      1.17    0.32    0.43
  C16                  CONDUIT     0.371     0  03:01      1.62    0.04    0.13
  C3                   CONDUIT     0.171     0  05:55      2.00    0.07    0.17
  C19                  CONDUIT     0.095     0  03:25      1.02    0.03    0.22
  C11                  CONDUIT     0.258     0  04:27      1.81    0.01    0.12
  C20                  CONDUIT     0.474     0  03:01      2.16    0.01    0.12
  C22                  CONDUIT     0.158     0  03:02      1.30    0.07    0.29
  C12                  CONDUIT     0.173     0  03:43      1.42    0.01    0.11
  C17                  CONDUIT     0.629     0  03:01      2.56    0.03    0.13
  C10                  CONDUIT     0.502     0  03:01      1.66    0.05    0.58
  C13                  CONDUIT     0.761     0  03:03      1.53    0.04    0.57
  C18                  CONDUIT     0.327     0  03:01      1.72    0.01    0.54
  C23                  CONDUIT     0.904     0  03:02      1.26    0.10    0.61
  C4                   CONDUIT     0.234     0  03:01      1.98    0.06    0.58
  C7                   CONDUIT     0.152     0  03:02      1.43    0.04    0.57
  C14                  CONDUIT     0.271     0  02:46      2.08    0.02    0.09
  C5                   CONDUIT     0.070     0  03:01      1.36    1.19    1.00
  C8                   CONDUIT     0.097     0  03:01      1.41    1.22    0.80
  C15                  CONDUIT     0.380     0  03:01      2.79    1.21    0.79
  C21                  CONDUIT     0.160     0  03:01      1.76    0.92    0.58
  V4                   ORIFICE     0.056     0  03:38                      1.00
  V5                   ORIFICE     0.037     0  03:57                      1.00
  V1                   ORIFICE     0.271     0  02:44                      1.00
  V6                   ORIFICE     0.173     0  03:41                      1.00
  V3                   ORIFICE     0.171     0  05:54                      1.00
  V2                   ORIFICE     0.095     0  03:23                      1.00
  
  
  ***************************
  Flow Classification Summary
  ***************************
  
  -------------------------------------------------------------------------------------
                      Adjusted    ---------- Fraction of Time in Flow Class ---------- 
                       /Actual         Up    Down  Sub   Sup   Up    Down  Norm  Inlet 
  Conduit               Length    Dry  Dry   Dry   Crit  Crit  Crit  Crit  Ltd   Ctrl  
  -------------------------------------------------------------------------------------
  C1                      1.00   0.00  0.00  0.00  0.92  0.08  0.00  0.00  0.95  0.00
  C6                      1.00   0.00  0.00  0.00  0.05  0.95  0.00  0.00  0.00  0.00
  C2                      1.00   0.00  0.00  0.00  0.11  0.89  0.00  0.00  0.94  0.00
  C9                      1.00   0.00  0.00  0.00  1.00  0.00  0.00  0.00  1.00  0.00
  C16                     1.00   0.00  0.00  0.00  0.57  0.43  0.00  0.00  0.45  0.00
  C3                      1.00   0.00  0.00  0.00  0.05  0.94  0.00  0.00  0.07  0.00
  C19                     1.00   0.00  0.00  0.00  1.00  0.00  0.00  0.00  1.00  0.00
  C11                     1.00   0.00  0.00  0.00  0.30  0.70  0.00  0.00  1.00  0.00
  C20                     1.00   0.00  0.00  0.00  0.63  0.37  0.00  0.00  0.98  0.00
  C22                     1.00   0.00  0.00  0.00  0.95  0.05  0.00  0.00  1.00  0.00
  C12                     1.00   0.00  0.00  0.00  0.36  0.64  0.00  0.00  0.57  0.00
  C17                     1.00   0.00  0.00  0.00  0.51  0.49  0.00  0.00  0.97  0.00
  C10                     1.00   0.00  0.00  0.00  0.94  0.06  0.00  0.00  0.97  0.00
  C13                     1.00   0.00  0.00  0.00  0.86  0.14  0.00  0.00  0.91  0.00
  C18                     1.00   0.00  0.00  0.00  0.82  0.18  0.00  0.00  0.97  0.00
  C23                     1.00   0.00  0.00  0.00  0.90  0.10  0.00  0.00  0.94  0.00
  C4                      1.00   0.00  0.00  0.00  0.96  0.04  0.00  0.00  0.98  0.00
  C7                      1.00   0.00  0.00  0.00  0.91  0.09  0.00  0.00  0.96  0.00
  C14                     1.00   0.00  0.00  0.00  0.00  0.99  0.00  0.00  0.00  0.00
  C5                      1.00   0.00  0.00  0.00  0.89  0.11  0.00  0.00  0.95  0.00
  C8                      1.00   0.00  0.00  0.00  0.08  0.92  0.00  0.00  0.00  0.00
  C15                     1.00   0.00  0.00  0.00  0.00  1.00  0.00  0.00  0.00  0.00
  C21                     1.00   0.00  0.00  0.00  0.00  1.00  0.00  0.00  0.00  0.00
  
  
  *************************
  Conduit Surcharge Summary
  *************************
  
  ----------------------------------------------------------------------------
                                                           Hours        Hours 
                         --------- Hours Full --------   Above Full   Capacity
  Conduit                Both Ends  Upstream  Dnstream   Normal Flow   Limited
  ----------------------------------------------------------------------------
  C6                          0.01      0.14      0.01      0.04         0.01
  C10                         0.01      0.01      5.28      0.01         0.01
  C13                         0.01      0.01      5.05      0.01         0.01
  C18                         0.01      0.01      1.25      0.01         0.01
  C23                         0.01      0.01      5.89      0.01         0.01
  C4                          0.01      0.01      5.91      0.01         0.01
  C7                          0.01      0.01      4.45      0.01         0.01
  C5                          0.18      0.18      0.32      0.28         0.15
  C8                          0.01      0.24      0.01      0.26         0.01
  C15                         0.01      0.17      0.01      0.27         0.01
  

  Analysis begun on:  Fri Sep  3 17:33:06 2021
  Analysis ended on:  Fri Sep  3 17:33:06 2021
  Total elapsed time: < 1 sec