
  EPA STORM WATER MANAGEMENT MODEL - VERSION 5.1 (Build 5.3.0.dev0)
  --------------------------------------------------------------

  
  *********************************************************
  NOTE: The summary statistics displayed in this report are
  based on results found at every computational time step,  
  not just on results from each reporting time step.
  *********************************************************
  
  ****************
  Analysis Options
  ****************
  Flow Units ............... CMS
  Process Models:
    Rainfall/Runoff ........ YES
    RDII ................... NO
    Snowmelt ............... NO
    Groundwater ............ NO
    Flow Routing ........... YES
    Ponding Allowed ........ YES
    Water Quality .......... NO
  Infiltration Method ...... HORTON
  Flow Routing Method ...... DYNWAVE
  Surcharge Method ......... EXTRAN
  Starting Date ............ 08/28/2015 08:00:00
  Ending Date .............. 08/28/2015 15:50:00
  Antecedent Dry Days ...... 0.0
  Report Time Step ......... 00:01:00
  Wet Time Step ............ 00:01:00
  Dry Time Step ............ 00:01:00
  Routing Time Step ........ 5.00 sec
  Variable Time Step ....... YES
  Maximum Trials ........... 8
  Number of Threads ........ 1
  Head Tolerance ........... 0.001500 m
  
  
  **************************        Volume         Depth
  Runoff Quantity Continuity     hectare-m            mm
  **************************     ---------       -------
  Total Precipitation ......         1.467         8.140
  Evaporation Loss .........         0.000         0.000
  Infiltration Loss ........         0.000         0.000
  Surface Runoff ...........         1.443         8.010
  Final Storage ............         0.024         0.131
  Continuity Error (%) .....        -0.007
  
  
  **************************        Volume        Volume
  Flow Routing Continuity        hectare-m      10^6 ltr
  **************************     ---------     ---------
  Dry Weather Inflow .......         0.396         3.955
  Wet Weather Inflow .......         1.443        14.433
  Groundwater Inflow .......         0.000         0.000
  RDII Inflow ..............         0.000         0.000
  External Inflow ..........         0.000         0.000
  External Outflow .........         0.594         5.938
  Flooding Loss ............         0.515         5.154
  Evaporation Loss .........         0.000         0.000
  Exfiltration Loss ........         0.000         0.000
  Initial Stored Volume ....         0.000         0.000
  Final Stored Volume ......         0.586         5.856
  Continuity Error (%) .....         7.839
  
  
  *************************
  Highest Continuity Errors
  *************************
  Node T5 (21.97%)
  Node T3 (17.07%)
  Node T2 (7.09%)
  Node T1 (7.08%)
  Node T6 (6.27%)
  
  
  ***************************
  Time-Step Critical Elements
  ***************************
  None
  
  
  ********************************
  Highest Flow Instability Indexes
  ********************************
  Link C13 (1)
  
  
  *************************
  Routing Time Step Summary
  *************************
  Minimum Time Step           :     4.50 sec
  Average Time Step           :     5.00 sec
  Maximum Time Step           :     5.00 sec
  Percent in Steady State     :     0.00
  Average Iterations per Step :     2.18
  Percent Not Converging      :     0.55
  
  
  ***************************
  Subcatchment Runoff Summary
  ***************************
  
  ------------------------------------------------------------------------------------------------------------------------------
                            Total      Total      Total      Total     Imperv       Perv      Total       Total     Peak  Runoff
                           Precip      Runon       Evap      Infil     Runoff     Runoff     Runoff      Runoff   Runoff   Coeff
  Subcatchment                 mm         mm         mm         mm         mm         mm         mm    10^6 ltr      CMS
  ------------------------------------------------------------------------------------------------------------------------------
  SC01                       8.14       0.00       0.00       0.00       8.05       0.00       8.05        2.66     0.69   0.989
  SC02                       8.14       0.00       0.00       0.00       8.05       0.00       8.05        1.83     0.47   0.989
  SC03                       8.14       0.00       0.00       0.00       8.07       0.00       8.07        1.45     0.40   0.992
  SC04                       8.14       0.00       0.00       0.00       7.95       0.00       7.95        0.55     0.12   0.976
  SC05                       8.14       0.00       0.00       0.00       8.05       0.00       8.05        1.26     0.32   0.989
  SC06                       8.14       0.00       0.00       0.00       7.89       0.00       7.89        2.57     0.55   0.970
  SC07                       8.14       0.00       0.00       0.00       7.95       0.00       7.95        0.38     0.08   0.976
  SC08                       8.14       0.00       0.00       0.00       8.02       0.00       8.02        2.25     0.55   0.986
  SC09                       8.14       0.00       0.00       0.00       8.00       0.00       8.00        0.55     0.13   0.983
  SC010                      8.14       0.00       0.00       0.00       8.03       0.00       8.03        0.94     0.23   0.986
  
  
  ******************
  Node Depth Summary
  ******************
  
  ---------------------------------------------------------------------------------
                                 Average  Maximum  Maximum  Time of Max    Reported
                                   Depth    Depth      HGL   Occurrence   Max Depth
  Node                 Type       Meters   Meters   Meters  days hr:min      Meters
  ---------------------------------------------------------------------------------
  J1                   JUNCTION     0.08     0.19    34.19     0  02:43        0.19
  J3                   JUNCTION     0.13     0.17    18.17     0  03:59        0.17
  CSO7                 JUNCTION     0.18     1.20    35.20     0  02:34        1.20
  J5                   JUNCTION     0.07     0.15    32.15     0  02:47        0.15
  CSO9                 JUNCTION     0.22     2.00    42.00     0  02:38        2.00
  J8                   JUNCTION     0.11     0.27    36.27     0  02:49        0.27
  CSO8                 JUNCTION     0.25     2.00    34.00     0  02:36        2.00
  J10                  JUNCTION     0.10     0.29    29.29     0  02:43        0.29
  J13                  JUNCTION     0.07     0.19    29.19     0  02:43        0.19
  J15                  JUNCTION     0.21     0.37    15.37     0  02:48        0.37
  J16                  JUNCTION     0.07     0.21    30.21     0  02:43        0.21
  CSO10                JUNCTION     0.16     1.00    31.00     0  02:36        1.00
  J12                  JUNCTION     0.36     0.58    26.58     0  05:33        0.58
  J4                   JUNCTION     0.16     1.28    34.28     0  02:34        0.76
  J6                   JUNCTION     0.08     0.11    25.11     0  03:38        0.11
  J2                   JUNCTION     0.07     0.08    25.08     0  03:50        0.08
  J19                  JUNCTION     0.14     0.17     8.17     0  02:37        0.17
  J9                   JUNCTION     0.13     0.16    29.16     0  03:47        0.16
  J14                  JUNCTION     0.15     0.18    20.18     0  06:24        0.18
  J17                  JUNCTION     0.10     0.14    20.14     0  03:22        0.14
  J7                   JUNCTION     0.09     0.23    39.23     0  02:54        0.23
  J11                  JUNCTION     0.10     0.30    31.30     0  02:56        0.30
  J18                  JUNCTION     0.06     0.16    29.16     0  02:57        0.16
  Out_to_WWTP          OUTFALL      0.14     0.17     6.17     0  02:36        0.17
  T5                   STORAGE      3.33     5.00    32.00     0  02:59        5.00
  T4                   STORAGE      1.60     3.31    30.31     0  03:37        3.31
  T6                   STORAGE      2.60     5.00    36.00     0  02:56        5.00
  T3                   STORAGE      3.03     4.59    26.59     0  05:29        4.59
  T2                   STORAGE      1.55     3.30    24.30     0  03:20        3.30
  T1                   STORAGE      3.68     5.00    15.00     0  02:36        5.00
  
  
  *******************
  Node Inflow Summary
  *******************
  
  -------------------------------------------------------------------------------------------------
                                  Maximum  Maximum                  Lateral       Total        Flow
                                  Lateral    Total  Time of Max      Inflow      Inflow     Balance
                                   Inflow   Inflow   Occurrence      Volume      Volume       Error
  Node                 Type           CMS      CMS  days hr:min    10^6 ltr    10^6 ltr     Percent
  -------------------------------------------------------------------------------------------------
  J1                   JUNCTION     0.343    0.343     0  02:43        1.82        1.82       0.027
  J3                   JUNCTION     0.000    0.283     0  03:58           0        5.65       0.826
  CSO7                 JUNCTION     0.095    0.095     0  02:47       0.668       0.668       0.068
  J5                   JUNCTION     0.127    0.198     0  02:47       0.676        1.31       0.095
  CSO9                 JUNCTION     0.138    0.138     0  02:45       0.748       0.748       0.059
  J8                   JUNCTION     0.580    0.707     0  02:48        3.51        4.25       0.098
  CSO8                 JUNCTION     0.562    0.562     0  02:44        2.54        2.54       0.020
  J10                  JUNCTION     0.413    0.899     0  02:42        1.84        4.31       0.068
  J13                  JUNCTION     0.489    0.489     0  02:43         2.3         2.3      -0.213
  J15                  JUNCTION     0.000    1.204     0  02:44           0        11.8       0.936
  J16                  JUNCTION     0.713    0.713     0  02:43        3.21        3.21      -0.024
  CSO10                JUNCTION     0.238    0.238     0  02:44        1.08        1.08       0.030
  J12                  JUNCTION     0.000    1.037     0  02:44           0        7.49       3.608
  J4                   JUNCTION     0.000    0.073     0  02:34           0       0.635       0.535
  J6                   JUNCTION     0.000    0.065     0  03:37           0        1.14       0.399
  J2                   JUNCTION     0.000    0.039     0  02:59           0       0.827       0.641
  J19                  JUNCTION     0.000    0.271     0  02:36           0        5.95       0.213
  J9                   JUNCTION     0.000    0.175     0  02:56           0         3.2       0.604
  J14                  JUNCTION     0.000    0.182     0  05:29           0         3.7       0.263
  J17                  JUNCTION     0.000    0.114     0  03:20           0        1.96       0.474
  J7                   JUNCTION     0.000    0.127     0  02:54           0       0.741       0.423
  J11                  JUNCTION     0.000    0.486     0  02:56           0        2.48       0.251
  J18                  JUNCTION     0.000    0.202     0  02:57           0        1.05       0.054
  Out_to_WWTP          OUTFALL      0.000    0.271     0  02:37           0        5.94       0.000
  T5                   STORAGE      0.000    0.343     0  02:43           0        1.82      28.160
  T4                   STORAGE      0.000    0.198     0  02:47           0        1.31       6.182
  T6                   STORAGE      0.000    0.706     0  02:49           0        4.24       6.684
  T3                   STORAGE      0.000    1.029     0  02:47           0        7.23      20.590
  T2                   STORAGE      0.000    0.488     0  02:43           0         2.3       7.631
  T1                   STORAGE      0.000    1.193     0  02:48           0        11.7       7.621
  
  
  **********************
  Node Surcharge Summary
  **********************
  
  Surcharging occurs when water rises above the top of the highest conduit.
  ---------------------------------------------------------------------
                                               Max. Height   Min. Depth
                                   Hours       Above Crown    Below Rim
  Node                 Type      Surcharged         Meters       Meters
  ---------------------------------------------------------------------
  CSO7                 JUNCTION        0.70          0.945        0.000
  CSO9                 JUNCTION        0.71          1.682        0.000
  CSO8                 JUNCTION        0.67          1.547        0.000
  CSO10                JUNCTION        0.48          0.560        0.000
  J4                   JUNCTION        0.67          0.983        0.717
  
  
  *********************
  Node Flooding Summary
  *********************
  
  Flooding refers to all water that overflows a node, whether it ponds or not.
  --------------------------------------------------------------------------
                                                             Total   Maximum
                                 Maximum   Time of Max       Flood    Ponded
                        Hours       Rate    Occurrence      Volume     Depth
  Node                 Flooded       CMS   days hr:min    10^6 ltr    Meters
  --------------------------------------------------------------------------
  CSO7                    0.53     0.024      0  02:47       0.032     0.000
  CSO9                    0.27     0.011      0  02:45       0.007     0.000
  CSO8                    0.33     0.076      0  02:44       0.058     0.000
  CSO10                   0.35     0.036      0  02:44       0.029     0.000
  T5                      0.92     0.232      0  02:59       0.189     0.000
  T6                      0.84     0.516      0  02:56       0.609     0.000
  T1                      5.23     0.923      0  02:48       4.230     0.000
  
  
  **********************
  Storage Volume Summary
  **********************
  
  --------------------------------------------------------------------------------------------------
                         Average     Avg  Evap Exfil       Maximum     Max    Time of Max    Maximum
                          Volume    Pcnt  Pcnt  Pcnt        Volume    Pcnt     Occurrence    Outflow
  Storage Unit           1000 m3    Full  Loss  Loss       1000 m3    Full    days hr:min        CMS
  --------------------------------------------------------------------------------------------------
  T5                       0.333      67     0     0         0.500     100       0  02:59      0.039
  T4                       0.160      32     0     0         0.331      66       0  03:37      0.065
  T6                       0.312      52     0     0         0.600     100       0  02:56      0.175
  T3                       1.576      61     0     0         2.386      92       0  05:29      0.182
  T2                       0.310      31     0     0         0.661      66       0  03:20      0.114
  T1                       0.515      74     0     0         0.700     100       0  02:36      0.271
  
  
  ***********************
  Outfall Loading Summary
  ***********************
  
  -----------------------------------------------------------
                         Flow       Avg       Max       Total
                         Freq      Flow      Flow      Volume
  Outfall Node           Pcnt       CMS       CMS    10^6 ltr
  -----------------------------------------------------------
  Out_to_WWTP           99.01     0.213     0.271       5.938
  -----------------------------------------------------------
  System                99.01     0.213     0.271       5.938
  
  
  ********************
  Link Flow Summary
  ********************
  
  -----------------------------------------------------------------------------
                                 Maximum  Time of Max   Maximum    Max/    Max/
                                  |Flow|   Occurrence   |Veloc|    Full    Full
  Link                 Type          CMS  days hr:min     m/sec    Flow   Depth
  -----------------------------------------------------------------------------
  C1                   CONDUIT     0.039     0  03:49      0.91    0.01    0.12
  C6                   CONDUIT     0.071     0  02:47      1.29    1.13    0.75
  C2                   CONDUIT     0.065     0  03:38      1.32    0.07    0.23
  C9                   CONDUIT     0.127     0  02:54      1.29    0.43    0.50
  C16                  CONDUIT     0.487     0  02:42      1.78    0.05    0.15
  C3                   CONDUIT     0.182     0  05:30      2.04    0.07    0.17
  C19                  CONDUIT     0.114     0  03:22      1.12    0.04    0.25
  C11                  CONDUIT     0.282     0  03:59      1.84    0.01    0.13
  C20                  CONDUIT     0.713     0  02:43      2.63    0.02    0.14
  C22                  CONDUIT     0.202     0  02:57      1.48    0.09    0.33
  C12                  CONDUIT     0.175     0  03:47      1.07    0.01    0.18
  C17                  CONDUIT     0.896     0  02:43      2.93    0.04    0.16
  C10                  CONDUIT     0.706     0  02:49      1.66    0.07    0.59
  C13                  CONDUIT     1.029     0  02:47      1.53    0.06    0.65
  C18                  CONDUIT     0.488     0  02:43      1.72    0.02    0.55
  C23                  CONDUIT     1.193     0  02:48      1.26    0.13    0.62
  C4                   CONDUIT     0.343     0  02:43      1.98    0.08    0.60
  C7                   CONDUIT     0.198     0  02:47      1.43    0.05    0.57
  C14                  CONDUIT     0.271     0  02:37      2.08    0.02    0.09
  C5                   CONDUIT     0.073     0  02:34      1.43    1.25    1.00
  C8                   CONDUIT     0.127     0  02:54      1.76    1.60    0.86
  C15                  CONDUIT     0.486     0  02:56      3.43    1.55    0.83
  C21                  CONDUIT     0.202     0  02:57      1.83    1.16    0.69
  V4                   ORIFICE     0.065     0  03:37                      1.00
  V5                   ORIFICE     0.039     0  02:59                      1.00
  V1                   ORIFICE     0.271     0  02:36                      1.00
  V6                   ORIFICE     0.175     0  02:56                      1.00
  V3                   ORIFICE     0.182     0  05:29                      1.00
  V2                   ORIFICE     0.114     0  03:20                      1.00
  
  
  ***************************
  Flow Classification Summary
  ***************************
  
  -------------------------------------------------------------------------------------
                      Adjusted    ---------- Fraction of Time in Flow Class ---------- 
                       /Actual         Up    Down  Sub   Sup   Up    Down  Norm  Inlet 
  Conduit               Length    Dry  Dry   Dry   Crit  Crit  Crit  Crit  Ltd   Ctrl  
  -------------------------------------------------------------------------------------
  C1                      1.00   0.00  0.00  0.00  0.92  0.08  0.00  0.00  0.95  0.00
  C6                      1.00   0.00  0.00  0.00  0.11  0.89  0.00  0.00  0.00  0.00
  C2                      1.00   0.00  0.00  0.00  0.04  0.96  0.00  0.00  0.94  0.00
  C9                      1.00   0.00  0.00  0.00  1.00  0.00  0.00  0.00  1.00  0.00
  C16                     1.00   0.00  0.00  0.00  0.57  0.43  0.00  0.00  0.44  0.00
  C3                      1.00   0.00  0.00  0.00  0.05  0.94  0.00  0.00  0.07  0.00
  C19                     1.00   0.00  0.00  0.00  0.92  0.08  0.00  0.00  1.00  0.00
  C11                     1.00   0.00  0.00  0.00  0.29  0.70  0.00  0.00  1.00  0.00
  C20                     1.00   0.00  0.00  0.00  0.63  0.37  0.00  0.00  0.98  0.00
  C22                     1.00   0.00  0.00  0.00  0.86  0.14  0.00  0.00  1.00  0.00
  C12                     1.00   0.00  0.00  0.00  0.93  0.07  0.00  0.00  1.00  0.00
  C17                     1.00   0.00  0.00  0.00  0.57  0.43  0.00  0.00  0.97  0.00
  C10                     1.00   0.00  0.00  0.00  0.94  0.06  0.00  0.00  0.97  0.00
  C13                     1.00   0.00  0.00  0.00  0.87  0.13  0.00  0.00  0.33  0.00
  C18                     1.00   0.00  0.00  0.00  0.81  0.19  0.00  0.00  0.97  0.00
  C23                     1.00   0.00  0.00  0.00  0.90  0.10  0.00  0.00  0.94  0.00
  C4                      1.00   0.00  0.00  0.00  0.96  0.04  0.00  0.00  0.98  0.00
  C7                      1.00   0.00  0.00  0.00  0.91  0.09  0.00  0.00  0.96  0.00
  C14                     1.00   0.00  0.00  0.00  0.00  0.99  0.00  0.00  0.00  0.00
  C5                      1.00   0.00  0.00  0.00  0.89  0.11  0.00  0.00  0.89  0.00
  C8                      1.00   0.00  0.00  0.00  0.12  0.88  0.00  0.00  0.00  0.00
  C15                     1.00   0.00  0.00  0.00  0.00  1.00  0.00  0.00  0.00  0.00
  C21                     1.00   0.00  0.00  0.00  0.00  1.00  0.00  0.00  0.00  0.00
  
  
  *************************
  Conduit Surcharge Summary
  *************************
  
  ----------------------------------------------------------------------------
                                                           Hours        Hours 
                         --------- Hours Full --------   Above Full   Capacity
  Conduit                Both Ends  Upstream  Dnstream   Normal Flow   Limited
  ----------------------------------------------------------------------------
  C6                          0.01      0.67      0.01      0.57         0.01
  C10                         0.01      0.01      5.44      0.01         0.01
  C13                         0.01      0.01      5.20      0.01         0.01
  C18                         0.01      0.01      2.81      0.01         0.01
  C23                         0.01      0.01      5.89      0.01         0.01
  C4                          0.01      0.01      5.91      0.01         0.01
  C7                          0.01      0.01      5.25      0.01         0.01
  C5                          0.70      0.70      0.80      0.76         0.67
  C8                          0.01      0.71      0.01      0.74         0.01
  C15                         0.01      0.67      0.01      0.74         0.01
  C21                         0.01      0.48      0.01      0.48         0.01
  

  Analysis begun on:  Fri Sep  3 17:34:22 2021
  Analysis ended on:  Fri Sep  3 17:34:22 2021
  Total elapsed time: < 1 sec