
  EPA STORM WATER MANAGEMENT MODEL - VERSION 5.1 (Build 5.3.0.dev0)
  --------------------------------------------------------------

  
  *********************************************************
  NOTE: The summary statistics displayed in this report are
  based on results found at every computational time step,  
  not just on results from each reporting time step.
  *********************************************************
  
  ****************
  Analysis Options
  ****************
  Flow Units ............... CMS
  Process Models:
    Rainfall/Runoff ........ YES
    RDII ................... NO
    Snowmelt ............... NO
    Groundwater ............ NO
    Flow Routing ........... YES
    Ponding Allowed ........ YES
    Water Quality .......... NO
  Infiltration Method ...... HORTON
  Flow Routing Method ...... DYNWAVE
  Surcharge Method ......... EXTRAN
  Starting Date ............ 08/28/2015 08:00:00
  Ending Date .............. 08/28/2015 15:50:00
  Antecedent Dry Days ...... 0.0
  Report Time Step ......... 00:01:00
  Wet Time Step ............ 00:01:00
  Dry Time Step ............ 00:01:00
  Routing Time Step ........ 5.00 sec
  Variable Time Step ....... YES
  Maximum Trials ........... 8
  Number of Threads ........ 1
  Head Tolerance ........... 0.001500 m
  
  
  **************************        Volume         Depth
  Runoff Quantity Continuity     hectare-m            mm
  **************************     ---------       -------
  Total Precipitation ......         1.553         8.620
  Evaporation Loss .........         0.000         0.000
  Infiltration Loss ........         0.000         0.000
  Surface Runoff ...........         1.530         8.489
  Final Storage ............         0.024         0.132
  Continuity Error (%) .....        -0.007
  
  
  **************************        Volume        Volume
  Flow Routing Continuity        hectare-m      10^6 ltr
  **************************     ---------     ---------
  Dry Weather Inflow .......         0.396         3.955
  Wet Weather Inflow .......         1.530        15.298
  Groundwater Inflow .......         0.000         0.000
  RDII Inflow ..............         0.000         0.000
  External Inflow ..........         0.000         0.000
  External Outflow .........         0.605         6.049
  Flooding Loss ............         0.562         5.617
  Evaporation Loss .........         0.000         0.000
  Exfiltration Loss ........         0.000         0.000
  Initial Stored Volume ....         0.000         0.000
  Final Stored Volume ......         0.610         6.105
  Continuity Error (%) .....         7.702
  
  
  *************************
  Highest Continuity Errors
  *************************
  Node T5 (21.20%)
  Node T3 (16.85%)
  Node T2 (7.39%)
  Node T1 (6.80%)
  Node T6 (6.10%)
  
  
  ***************************
  Time-Step Critical Elements
  ***************************
  None
  
  
  ********************************
  Highest Flow Instability Indexes
  ********************************
  Link C13 (2)
  
  
  *************************
  Routing Time Step Summary
  *************************
  Minimum Time Step           :     0.17 sec
  Average Time Step           :     5.00 sec
  Maximum Time Step           :     5.00 sec
  Percent in Steady State     :     0.00
  Average Iterations per Step :     2.17
  Percent Not Converging      :     0.58
  
  
  ***************************
  Subcatchment Runoff Summary
  ***************************
  
  ------------------------------------------------------------------------------------------------------------------------------
                            Total      Total      Total      Total     Imperv       Perv      Total       Total     Peak  Runoff
                           Precip      Runon       Evap      Infil     Runoff     Runoff     Runoff      Runoff   Runoff   Coeff
  Subcatchment                 mm         mm         mm         mm         mm         mm         mm    10^6 ltr      CMS
  ------------------------------------------------------------------------------------------------------------------------------
  SC01                       8.62       0.00       0.00       0.00       8.53       0.00       8.53        2.82     0.64   0.990
  SC02                       8.62       0.00       0.00       0.00       8.53       0.00       8.53        1.94     0.44   0.989
  SC03                       8.62       0.00       0.00       0.00       8.55       0.00       8.55        1.54     0.36   0.992
  SC04                       8.62       0.00       0.00       0.00       8.42       0.00       8.42        0.58     0.12   0.977
  SC05                       8.62       0.00       0.00       0.00       8.53       0.00       8.53        1.33     0.30   0.989
  SC06                       8.62       0.00       0.00       0.00       8.37       0.00       8.37        2.72     0.55   0.971
  SC07                       8.62       0.00       0.00       0.00       8.42       0.00       8.42        0.40     0.08   0.977
  SC08                       8.62       0.00       0.00       0.00       8.50       0.00       8.50        2.38     0.52   0.986
  SC09                       8.62       0.00       0.00       0.00       8.48       0.00       8.48        0.58     0.13   0.983
  SC010                      8.62       0.00       0.00       0.00       8.51       0.00       8.51        1.00     0.22   0.987
  
  
  ******************
  Node Depth Summary
  ******************
  
  ---------------------------------------------------------------------------------
                                 Average  Maximum  Maximum  Time of Max    Reported
                                   Depth    Depth      HGL   Occurrence   Max Depth
  Node                 Type       Meters   Meters   Meters  days hr:min      Meters
  ---------------------------------------------------------------------------------
  J1                   JUNCTION     0.08     0.19    34.19     0  03:01        0.19
  J3                   JUNCTION     0.13     0.17    18.17     0  03:52        0.17
  CSO7                 JUNCTION     0.19     1.20    35.20     0  02:34        1.20
  J5                   JUNCTION     0.07     0.15    32.15     0  03:01        0.15
  CSO9                 JUNCTION     0.21     2.00    42.00     0  02:58        2.00
  J8                   JUNCTION     0.12     0.27    36.27     0  03:01        0.27
  CSO8                 JUNCTION     0.23     2.00    34.00     0  02:55        2.00
  J10                  JUNCTION     0.10     0.28    29.28     0  03:01        0.28
  J13                  JUNCTION     0.07     0.18    29.18     0  03:01        0.18
  J15                  JUNCTION     0.21     0.37    15.37     0  03:02        0.37
  J16                  JUNCTION     0.07     0.20    30.20     0  03:01        0.20
  CSO10                JUNCTION     0.15     1.00    31.00     0  02:54        1.00
  J12                  JUNCTION     0.45     0.73    26.73     0  05:24        0.73
  J4                   JUNCTION     0.17     1.04    34.04     0  02:34        0.76
  J6                   JUNCTION     0.09     0.11    25.11     0  03:39        0.11
  J2                   JUNCTION     0.07     0.08    25.08     0  03:49        0.08
  J19                  JUNCTION     0.15     0.17     8.17     0  02:28        0.17
  J9                   JUNCTION     0.13     0.16    29.16     0  03:48        0.16
  J14                  JUNCTION     0.15     0.18    20.18     0  06:14        0.18
  J17                  JUNCTION     0.10     0.14    20.14     0  03:24        0.14
  J7                   JUNCTION     0.09     0.23    39.23     0  03:02        0.23
  J11                  JUNCTION     0.11     0.30    31.30     0  02:59        0.30
  J18                  JUNCTION     0.06     0.16    29.16     0  03:02        0.16
  Out_to_WWTP          OUTFALL      0.14     0.17     6.17     0  02:27        0.17
  T5                   STORAGE      3.40     5.00    32.00     0  02:58        5.00
  T4                   STORAGE      1.75     3.52    30.52     0  03:37        3.52
  T6                   STORAGE      2.69     5.00    36.00     0  02:54        5.00
  T3                   STORAGE      3.18     4.74    26.74     0  05:29        4.74
  T2                   STORAGE      1.66     3.44    24.44     0  03:22        3.44
  T1                   STORAGE      3.77     5.00    15.00     0  02:26        5.00
  
  
  *******************
  Node Inflow Summary
  *******************
  
  -------------------------------------------------------------------------------------------------
                                  Maximum  Maximum                  Lateral       Total        Flow
                                  Lateral    Total  Time of Max      Inflow      Inflow     Balance
                                   Inflow   Inflow   Occurrence      Volume      Volume       Error
  Node                 Type           CMS      CMS  days hr:min    10^6 ltr    10^6 ltr     Percent
  -------------------------------------------------------------------------------------------------
  J1                   JUNCTION     0.323    0.323     0  03:01        1.89        1.89       0.016
  J3                   JUNCTION     0.000    0.288     0  03:51           0        5.83       0.810
  CSO7                 JUNCTION     0.095    0.095     0  03:01       0.691       0.691       0.067
  J5                   JUNCTION     0.125    0.196     0  03:01       0.709        1.38       0.082
  CSO9                 JUNCTION     0.133    0.133     0  03:01       0.781       0.781       0.068
  J8                   JUNCTION     0.584    0.710     0  03:01        3.67        4.44       0.085
  CSO8                 JUNCTION     0.533    0.533     0  03:01        2.67        2.67       0.023
  J10                  JUNCTION     0.377    0.864     0  03:01        1.92        4.58       0.035
  J13                  JUNCTION     0.457    0.457     0  03:01        2.41        2.41      -0.218
  J15                  JUNCTION     0.000    1.222     0  03:01           0        12.3       0.909
  J16                  JUNCTION     0.664    0.664     0  03:01        3.37        3.37      -0.028
  CSO10                JUNCTION     0.226    0.226     0  03:01        1.14        1.14       0.033
  J12                  JUNCTION     0.000    1.030     0  03:01           0        7.94       5.090
  J4                   JUNCTION     0.000    0.071     0  03:01           0       0.672       0.507
  J6                   JUNCTION     0.000    0.067     0  03:37           0        1.19       0.393
  J2                   JUNCTION     0.000    0.039     0  02:58           0       0.841       0.630
  J19                  JUNCTION     0.000    0.271     0  02:26           0        6.06       0.209
  J9                   JUNCTION     0.000    0.175     0  02:54           0        3.28       0.573
  J14                  JUNCTION     0.000    0.185     0  05:29           0        3.82       0.258
  J17                  JUNCTION     0.000    0.116     0  03:22           0        2.04       0.465
  J7                   JUNCTION     0.000    0.127     0  03:01           0        0.78       0.402
  J11                  JUNCTION     0.000    0.486     0  02:59           0        2.66       0.234
  J18                  JUNCTION     0.000    0.202     0  03:02           0        1.13       0.044
  Out_to_WWTP          OUTFALL      0.000    0.271     0  02:28           0        6.05       0.000
  T5                   STORAGE      0.000    0.320     0  03:01           0        1.89      26.908
  T4                   STORAGE      0.000    0.195     0  03:01           0        1.38       6.347
  T6                   STORAGE      0.000    0.700     0  03:01           0        4.44       6.500
  T3                   STORAGE      0.000    1.015     0  03:02           0        7.55      20.263
  T2                   STORAGE      0.000    0.453     0  03:01           0        2.41       7.975
  T1                   STORAGE      0.000    1.193     0  03:02           0        12.2       7.299
  
  
  **********************
  Node Surcharge Summary
  **********************
  
  Surcharging occurs when water rises above the top of the highest conduit.
  ---------------------------------------------------------------------
                                               Max. Height   Min. Depth
                                   Hours       Above Crown    Below Rim
  Node                 Type      Surcharged         Meters       Meters
  ---------------------------------------------------------------------
  CSO7                 JUNCTION        0.74          0.945        0.000
  CSO9                 JUNCTION        0.81          1.682        0.000
  CSO8                 JUNCTION        0.71          1.547        0.000
  CSO10                JUNCTION        0.31          0.560        0.000
  J4                   JUNCTION        0.70          0.738        0.962
  
  
  *********************
  Node Flooding Summary
  *********************
  
  Flooding refers to all water that overflows a node, whether it ponds or not.
  --------------------------------------------------------------------------
                                                             Total   Maximum
                                 Maximum   Time of Max       Flood    Ponded
                        Hours       Rate    Occurrence      Volume     Depth
  Node                 Flooded       CMS   days hr:min    10^6 ltr    Meters
  --------------------------------------------------------------------------
  CSO7                    0.49     0.024      0  03:01       0.018     0.000
  CSO9                    0.06     0.006      0  03:01       0.001     0.000
  CSO8                    0.12     0.046      0  03:01       0.009     0.000
  CSO10                   0.13     0.023      0  03:01       0.005     0.000
  T5                      0.98     0.281      0  03:01       0.248     0.000
  T6                      0.91     0.525      0  03:01       0.718     0.000
  T1                      5.39     0.922      0  03:02       4.619     0.000
  
  
  **********************
  Storage Volume Summary
  **********************
  
  --------------------------------------------------------------------------------------------------
                         Average     Avg  Evap Exfil       Maximum     Max    Time of Max    Maximum
                          Volume    Pcnt  Pcnt  Pcnt        Volume    Pcnt     Occurrence    Outflow
  Storage Unit           1000 m3    Full  Loss  Loss       1000 m3    Full    days hr:min        CMS
  --------------------------------------------------------------------------------------------------
  T5                       0.340      68     0     0         0.500     100       0  02:58      0.039
  T4                       0.175      35     0     0         0.352      70       0  03:37      0.067
  T6                       0.323      54     0     0         0.600     100       0  02:54      0.175
  T3                       1.653      64     0     0         2.464      95       0  05:29      0.292
  T2                       0.331      33     0     0         0.689      69       0  03:22      0.116
  T1                       0.528      75     0     0         0.700     100       0  02:26      0.271
  
  
  ***********************
  Outfall Loading Summary
  ***********************
  
  -----------------------------------------------------------
                         Flow       Avg       Max       Total
                         Freq      Flow      Flow      Volume
  Outfall Node           Pcnt       CMS       CMS    10^6 ltr
  -----------------------------------------------------------
  Out_to_WWTP           99.01     0.217     0.271       6.049
  -----------------------------------------------------------
  System                99.01     0.217     0.271       6.049
  
  
  ********************
  Link Flow Summary
  ********************
  
  -----------------------------------------------------------------------------
                                 Maximum  Time of Max   Maximum    Max/    Max/
                                  |Flow|   Occurrence   |Veloc|    Full    Full
  Link                 Type          CMS  days hr:min     m/sec    Flow   Depth
  -----------------------------------------------------------------------------
  C1                   CONDUIT     0.039     0  03:49      0.91    0.01    0.12
  C6                   CONDUIT     0.071     0  03:01      1.29    1.13    0.75
  C2                   CONDUIT     0.067     0  03:39      1.34    0.08    0.23
  C9                   CONDUIT     0.126     0  03:02      1.28    0.43    0.50
  C16                  CONDUIT     0.487     0  03:01      1.76    0.05    0.14
  C3                   CONDUIT     0.185     0  05:29      2.05    0.07    0.17
  C19                  CONDUIT     0.116     0  03:24      1.12    0.04    0.25
  C11                  CONDUIT     0.288     0  03:52      1.84    0.01    0.13
  C20                  CONDUIT     0.657     0  03:01      2.43    0.02    0.14
  C22                  CONDUIT     0.202     0  03:02      1.43    0.09    0.33
  C12                  CONDUIT     0.175     0  03:48      0.91    0.01    0.22
  C17                  CONDUIT     0.855     0  03:01      2.82    0.04    0.20
  C10                  CONDUIT     0.700     0  03:01      1.66    0.07    0.59
  C13                  CONDUIT     1.015     0  03:02      1.53    0.06    0.68
  C18                  CONDUIT     0.453     0  03:01      1.72    0.02    0.55
  C23                  CONDUIT     1.193     0  03:02      1.26    0.13    0.62
  C4                   CONDUIT     0.320     0  03:01      1.98    0.08    0.59
  C7                   CONDUIT     0.195     0  03:01      1.43    0.05    0.57
  C14                  CONDUIT     0.271     0  02:28      2.08    0.02    0.09
  C5                   CONDUIT     0.071     0  03:01      1.38    1.21    1.00
  C8                   CONDUIT     0.127     0  03:01      1.75    1.60    0.86
  C15                  CONDUIT     0.486     0  02:59      3.42    1.55    0.83
  C21                  CONDUIT     0.202     0  03:02      1.82    1.16    0.69
  V4                   ORIFICE     0.067     0  03:37                      1.00
  V5                   ORIFICE     0.039     0  02:58                      1.00
  V1                   ORIFICE     0.271     0  02:26                      1.00
  V6                   ORIFICE     0.175     0  02:54                      1.00
  V3                   ORIFICE     0.185     0  05:29                      1.00
  V2                   ORIFICE     0.116     0  03:22                      1.00
  
  
  ***************************
  Flow Classification Summary
  ***************************
  
  -------------------------------------------------------------------------------------
                      Adjusted    ---------- Fraction of Time in Flow Class ---------- 
                       /Actual         Up    Down  Sub   Sup   Up    Down  Norm  Inlet 
  Conduit               Length    Dry  Dry   Dry   Crit  Crit  Crit  Crit  Ltd   Ctrl  
  -------------------------------------------------------------------------------------
  C1                      1.00   0.00  0.00  0.00  0.92  0.08  0.00  0.00  0.95  0.00
  C6                      1.00   0.00  0.00  0.00  0.13  0.87  0.00  0.00  0.00  0.00
  C2                      1.00   0.00  0.00  0.00  0.02  0.98  0.00  0.00  0.94  0.00
  C9                      1.00   0.00  0.00  0.00  1.00  0.00  0.00  0.00  1.00  0.00
  C16                     1.00   0.00  0.00  0.00  0.55  0.45  0.00  0.00  0.40  0.00
  C3                      1.00   0.00  0.00  0.00  0.05  0.94  0.00  0.00  0.07  0.00
  C19                     1.00   0.00  0.00  0.00  0.90  0.10  0.00  0.00  1.00  0.00
  C11                     1.00   0.00  0.00  0.00  0.31  0.69  0.00  0.00  1.00  0.00
  C20                     1.00   0.00  0.00  0.00  0.63  0.37  0.00  0.00  0.98  0.00
  C22                     1.00   0.00  0.00  0.00  0.79  0.21  0.00  0.00  1.00  0.00
  C12                     1.00   0.00  0.00  0.00  0.93  0.06  0.00  0.00  1.00  0.00
  C17                     1.00   0.00  0.00  0.00  0.58  0.42  0.00  0.00  0.97  0.00
  C10                     1.00   0.00  0.00  0.00  0.94  0.06  0.00  0.00  0.97  0.00
  C13                     1.00   0.00  0.00  0.00  0.84  0.16  0.00  0.00  0.31  0.00
  C18                     1.00   0.00  0.00  0.00  0.82  0.18  0.00  0.00  0.97  0.00
  C23                     1.00   0.00  0.00  0.00  0.90  0.10  0.00  0.00  0.94  0.00
  C4                      1.00   0.00  0.00  0.00  0.96  0.04  0.00  0.00  0.98  0.00
  C7                      1.00   0.00  0.00  0.00  0.91  0.09  0.00  0.00  0.96  0.00
  C14                     1.00   0.00  0.00  0.00  0.00  0.99  0.00  0.00  0.00  0.00
  C5                      1.00   0.00  0.00  0.00  0.90  0.10  0.00  0.00  0.88  0.00
  C8                      1.00   0.00  0.00  0.00  0.16  0.84  0.00  0.00  0.00  0.00
  C15                     1.00   0.00  0.00  0.00  0.00  1.00  0.00  0.00  0.00  0.00
  C21                     1.00   0.00  0.00  0.00  0.00  1.00  0.00  0.00  0.00  0.00
  
  
  *************************
  Conduit Surcharge Summary
  *************************
  
  ----------------------------------------------------------------------------
                                                           Hours        Hours 
                         --------- Hours Full --------   Above Full   Capacity
  Conduit                Both Ends  Upstream  Dnstream   Normal Flow   Limited
  ----------------------------------------------------------------------------
  C6                          0.01      0.70      0.01      0.60         0.01
  C10                         0.01      0.01      5.66      0.01         0.01
  C13                         0.01      0.01      5.35      0.01         0.01
  C18                         0.01      0.01      3.07      0.01         0.01
  C23                         0.01      0.01      6.05      0.01         0.01
  C4                          0.01      0.01      6.07      0.01         0.01
  C7                          0.01      0.01      5.62      0.01         0.01
  C5                          0.74      0.74      0.90      0.87         0.72
  C8                          0.01      0.82      0.01      0.85         0.01
  C15                         0.01      0.71      0.01      0.85         0.01
  C21                         0.01      0.31      0.01      0.33         0.01
  

  Analysis begun on:  Fri Sep  3 17:37:44 2021
  Analysis ended on:  Fri Sep  3 17:37:44 2021
  Total elapsed time: < 1 sec