
  EPA STORM WATER MANAGEMENT MODEL - VERSION 5.1 (Build 5.3.0.dev0)
  --------------------------------------------------------------

  
  *********************************************************
  NOTE: The summary statistics displayed in this report are
  based on results found at every computational time step,  
  not just on results from each reporting time step.
  *********************************************************
  
  ****************
  Analysis Options
  ****************
  Flow Units ............... CMS
  Process Models:
    Rainfall/Runoff ........ YES
    RDII ................... NO
    Snowmelt ............... NO
    Groundwater ............ NO
    Flow Routing ........... YES
    Ponding Allowed ........ YES
    Water Quality .......... NO
  Infiltration Method ...... HORTON
  Flow Routing Method ...... DYNWAVE
  Surcharge Method ......... EXTRAN
  Starting Date ............ 08/28/2015 08:00:00
  Ending Date .............. 08/28/2015 15:50:00
  Antecedent Dry Days ...... 0.0
  Report Time Step ......... 00:01:00
  Wet Time Step ............ 00:01:00
  Dry Time Step ............ 00:01:00
  Routing Time Step ........ 5.00 sec
  Variable Time Step ....... YES
  Maximum Trials ........... 8
  Number of Threads ........ 1
  Head Tolerance ........... 0.001500 m
  
  
  **************************        Volume         Depth
  Runoff Quantity Continuity     hectare-m            mm
  **************************     ---------       -------
  Total Precipitation ......         0.893         4.955
  Evaporation Loss .........         0.000         0.000
  Infiltration Loss ........         0.000         0.000
  Surface Runoff ...........         0.870         4.828
  Final Storage ............         0.023         0.127
  Continuity Error (%) .....        -0.007
  
  
  **************************        Volume        Volume
  Flow Routing Continuity        hectare-m      10^6 ltr
  **************************     ---------     ---------
  Dry Weather Inflow .......         0.396         3.955
  Wet Weather Inflow .......         0.870         8.700
  Groundwater Inflow .......         0.000         0.000
  RDII Inflow ..............         0.000         0.000
  External Inflow ..........         0.000         0.000
  External Outflow .........         0.584         5.842
  Flooding Loss ............         0.147         1.471
  Evaporation Loss .........         0.000         0.000
  Exfiltration Loss ........         0.000         0.000
  Initial Stored Volume ....         0.000         0.000
  Final Stored Volume ......         0.435         4.354
  Continuity Error (%) .....         7.813
  
  
  *************************
  Highest Continuity Errors
  *************************
  Node T5 (23.14%)
  Node T3 (15.81%)
  Node T1 (9.37%)
  Node T6 (6.15%)
  Node T4 (4.04%)
  
  
  ***************************
  Time-Step Critical Elements
  ***************************
  None
  
  
  ********************************
  Highest Flow Instability Indexes
  ********************************
  All links are stable.
  
  
  *************************
  Routing Time Step Summary
  *************************
  Minimum Time Step           :     4.50 sec
  Average Time Step           :     5.00 sec
  Maximum Time Step           :     5.00 sec
  Percent in Steady State     :     0.00
  Average Iterations per Step :     2.00
  Percent Not Converging      :     0.00
  
  
  ***************************
  Subcatchment Runoff Summary
  ***************************
  
  ------------------------------------------------------------------------------------------------------------------------------
                            Total      Total      Total      Total     Imperv       Perv      Total       Total     Peak  Runoff
                           Precip      Runon       Evap      Infil     Runoff     Runoff     Runoff      Runoff   Runoff   Coeff
  Subcatchment                 mm         mm         mm         mm         mm         mm         mm    10^6 ltr      CMS
  ------------------------------------------------------------------------------------------------------------------------------
  SC01                       4.95       0.00       0.00       0.00       4.87       0.00       4.87        1.61     0.32   0.983
  SC02                       4.95       0.00       0.00       0.00       4.86       0.00       4.86        1.11     0.22   0.982
  SC03                       4.95       0.00       0.00       0.00       4.89       0.00       4.89        0.88     0.18   0.986
  SC04                       4.95       0.00       0.00       0.00       4.77       0.00       4.77        0.33     0.06   0.962
  SC05                       4.95       0.00       0.00       0.00       4.86       0.00       4.86        0.76     0.15   0.982
  SC06                       4.95       0.00       0.00       0.00       4.72       0.00       4.72        1.54     0.27   0.952
  SC07                       4.95       0.00       0.00       0.00       4.77       0.00       4.77        0.23     0.04   0.962
  SC08                       4.95       0.00       0.00       0.00       4.84       0.00       4.84        1.36     0.26   0.977
  SC09                       4.95       0.00       0.00       0.00       4.82       0.00       4.82        0.33     0.06   0.972
  SC010                      4.95       0.00       0.00       0.00       4.84       0.00       4.84        0.57     0.11   0.978
  
  
  ******************
  Node Depth Summary
  ******************
  
  ---------------------------------------------------------------------------------
                                 Average  Maximum  Maximum  Time of Max    Reported
                                   Depth    Depth      HGL   Occurrence   Max Depth
  Node                 Type       Meters   Meters   Meters  days hr:min      Meters
  ---------------------------------------------------------------------------------
  J1                   JUNCTION     0.07     0.14    34.14     0  03:01        0.14
  J3                   JUNCTION     0.12     0.15    18.15     0  04:33        0.15
  CSO7                 JUNCTION     0.10     0.19    34.19     0  03:01        0.19
  J5                   JUNCTION     0.06     0.11    32.11     0  03:01        0.11
  CSO9                 JUNCTION     0.10     0.24    40.24     0  03:01        0.24
  J8                   JUNCTION     0.10     0.20    36.20     0  03:01        0.20
  CSO8                 JUNCTION     0.12     0.34    32.34     0  03:01        0.34
  J10                  JUNCTION     0.09     0.21    29.21     0  03:01        0.21
  J13                  JUNCTION     0.06     0.13    29.13     0  03:01        0.13
  J15                  JUNCTION     0.18     0.28    15.28     0  03:02        0.28
  J16                  JUNCTION     0.06     0.14    30.14     0  03:01        0.14
  CSO10                JUNCTION     0.11     0.28    30.28     0  03:01        0.28
  J12                  JUNCTION     0.14     0.25    26.25     0  03:03        0.25
  J4                   JUNCTION     0.12     0.22    33.22     0  03:02        0.22
  J6                   JUNCTION     0.07     0.10    25.10     0  03:40        0.10
  J2                   JUNCTION     0.06     0.07    25.07     0  04:17        0.07
  J19                  JUNCTION     0.14     0.17     8.17     0  02:57        0.17
  J9                   JUNCTION     0.12     0.15    29.15     0  03:43        0.15
  J14                  JUNCTION     0.13     0.17    20.17     0  06:05        0.17
  J17                  JUNCTION     0.09     0.12    20.12     0  03:25        0.12
  J7                   JUNCTION     0.08     0.16    39.16     0  03:02        0.16
  J11                  JUNCTION     0.09     0.22    31.22     0  03:01        0.22
  J18                  JUNCTION     0.05     0.12    29.12     0  03:01        0.12
  Out_to_WWTP          OUTFALL      0.14     0.17     6.17     0  02:56        0.17
  T5                   STORAGE      2.44     3.66    30.66     0  04:15        3.66
  T4                   STORAGE      0.93     1.86    28.86     0  03:39        1.86
  T6                   STORAGE      1.82     3.67    34.67     0  03:41        3.67
  T3                   STORAGE      2.10     3.26    25.26     0  05:50        3.26
  T2                   STORAGE      0.84     1.74    22.74     0  03:23        1.74
  T1                   STORAGE      3.58     5.00    15.00     0  02:56        5.00
  
  
  *******************
  Node Inflow Summary
  *******************
  
  -------------------------------------------------------------------------------------------------
                                  Maximum  Maximum                  Lateral       Total        Flow
                                  Lateral    Total  Time of Max      Inflow      Inflow     Balance
                                   Inflow   Inflow   Occurrence      Volume      Volume       Error
  Node                 Type           CMS      CMS  days hr:min    10^6 ltr    10^6 ltr     Percent
  -------------------------------------------------------------------------------------------------
  J1                   JUNCTION     0.172    0.172     0  03:01        1.32        1.32       0.043
  J3                   JUNCTION     0.000    0.229     0  04:31           0        4.67       0.866
  CSO7                 JUNCTION     0.053    0.053     0  03:01       0.517       0.517       0.088
  J5                   JUNCTION     0.065    0.115     0  03:01       0.456       0.969       0.132
  CSO9                 JUNCTION     0.070    0.070     0  03:01       0.528       0.528       0.083
  J8                   JUNCTION     0.307    0.375     0  03:01        2.48           3       0.141
  CSO8                 JUNCTION     0.270    0.270     0  03:01        1.65        1.65       0.032
  J10                  JUNCTION     0.194    0.457     0  03:01        1.27        2.91       0.179
  J13                  JUNCTION     0.236    0.236     0  03:01        1.57        1.57      -0.243
  J15                  JUNCTION     0.000    0.716     0  03:01           0        8.95       1.052
  J16                  JUNCTION     0.340    0.340     0  03:01        2.16        2.16       0.006
  CSO10                JUNCTION     0.115    0.115     0  03:01       0.708       0.708       0.060
  J12                  JUNCTION     0.000    0.580     0  03:01           0        5.58       0.498
  J4                   JUNCTION     0.000    0.053     0  03:01           0       0.516       0.729
  J6                   JUNCTION     0.000    0.048     0  03:39           0       0.877       0.415
  J2                   JUNCTION     0.000    0.034     0  04:15           0       0.714       0.665
  J19                  JUNCTION     0.000    0.271     0  02:56           0        5.85       0.216
  J9                   JUNCTION     0.000    0.150     0  03:41           0        2.69       0.689
  J14                  JUNCTION     0.000    0.153     0  05:50           0         3.1       0.276
  J17                  JUNCTION     0.000    0.082     0  03:23           0        1.45       0.456
  J7                   JUNCTION     0.000    0.070     0  03:01           0       0.528       0.607
  J11                  JUNCTION     0.000    0.269     0  03:01           0        1.65       0.361
  J18                  JUNCTION     0.000    0.115     0  03:01           0       0.708       0.120
  Out_to_WWTP          OUTFALL      0.000    0.271     0  02:58           0        5.84       0.000
  T5                   STORAGE      0.000    0.170     0  03:01           0        1.32      30.105
  T4                   STORAGE      0.000    0.113     0  03:01           0       0.968       4.208
  T6                   STORAGE      0.000    0.369     0  03:01           0           3       6.550
  T3                   STORAGE      0.000    0.570     0  03:03           0        5.55      18.785
  T2                   STORAGE      0.000    0.234     0  03:01           0        1.58       3.353
  T1                   STORAGE      0.000    0.700     0  03:02           0        8.85      10.335
  
  
  **********************
  Node Surcharge Summary
  **********************
  
  No nodes were surcharged.
  
  
  *********************
  Node Flooding Summary
  *********************
  
  Flooding refers to all water that overflows a node, whether it ponds or not.
  --------------------------------------------------------------------------
                                                             Total   Maximum
                                 Maximum   Time of Max       Flood    Ponded
                        Hours       Rate    Occurrence      Volume     Depth
  Node                 Flooded       CMS   days hr:min    10^6 ltr    Meters
  --------------------------------------------------------------------------
  T1                      4.60     0.430      0  03:02       1.471     0.000
  
  
  **********************
  Storage Volume Summary
  **********************
  
  --------------------------------------------------------------------------------------------------
                         Average     Avg  Evap Exfil       Maximum     Max    Time of Max    Maximum
                          Volume    Pcnt  Pcnt  Pcnt        Volume    Pcnt     Occurrence    Outflow
  Storage Unit           1000 m3    Full  Loss  Loss       1000 m3    Full    days hr:min        CMS
  --------------------------------------------------------------------------------------------------
  T5                       0.244      49     0     0         0.366      73       0  04:15      0.034
  T4                       0.093      19     0     0         0.186      37       0  03:39      0.048
  T6                       0.218      36     0     0         0.441      73       0  03:41      0.150
  T3                       1.091      42     0     0         1.693      65       0  05:50      0.153
  T2                       0.168      17     0     0         0.347      35       0  03:23      0.082
  T1                       0.501      72     0     0         0.700     100       0  02:56      0.271
  
  
  ***********************
  Outfall Loading Summary
  ***********************
  
  -----------------------------------------------------------
                         Flow       Avg       Max       Total
                         Freq      Flow      Flow      Volume
  Outfall Node           Pcnt       CMS       CMS    10^6 ltr
  -----------------------------------------------------------
  Out_to_WWTP           99.01     0.209     0.271       5.842
  -----------------------------------------------------------
  System                99.01     0.209     0.271       5.842
  
  
  ********************
  Link Flow Summary
  ********************
  
  -----------------------------------------------------------------------------
                                 Maximum  Time of Max   Maximum    Max/    Max/
                                  |Flow|   Occurrence   |Veloc|    Full    Full
  Link                 Type          CMS  days hr:min     m/sec    Flow   Depth
  -----------------------------------------------------------------------------
  C1                   CONDUIT     0.034     0  04:17      0.91    0.01    0.11
  C6                   CONDUIT     0.051     0  03:03      1.25    0.81    0.56
  C2                   CONDUIT     0.048     0  03:40      1.18    0.06    0.20
  C9                   CONDUIT     0.068     0  03:02      1.06    0.23    0.36
  C16                  CONDUIT     0.265     0  03:02      1.47    0.03    0.11
  C3                   CONDUIT     0.153     0  05:51      1.93    0.06    0.16
  C19                  CONDUIT     0.082     0  03:25      0.97    0.03    0.20
  C11                  CONDUIT     0.229     0  04:33      1.76    0.01    0.10
  C20                  CONDUIT     0.337     0  03:01      1.88    0.01    0.11
  C22                  CONDUIT     0.113     0  03:01      1.13    0.05    0.25
  C12                  CONDUIT     0.150     0  03:44      1.34    0.01    0.10
  C17                  CONDUIT     0.450     0  03:01      2.27    0.02    0.11
  C10                  CONDUIT     0.369     0  03:01      1.66    0.04    0.57
  C13                  CONDUIT     0.570     0  03:03      1.53    0.03    0.56
  C18                  CONDUIT     0.234     0  03:01      1.72    0.01    0.45
  C23                  CONDUIT     0.700     0  03:02      1.26    0.08    0.59
  C4                   CONDUIT     0.170     0  03:01      1.98    0.04    0.57
  C7                   CONDUIT     0.113     0  03:01      1.43    0.03    0.56
  C14                  CONDUIT     0.271     0  02:58      2.08    0.02    0.09
  C5                   CONDUIT     0.053     0  03:01      1.22    0.90    0.80
  C8                   CONDUIT     0.070     0  03:01      1.30    0.88    0.64
  C15                  CONDUIT     0.269     0  03:01      2.59    0.86    0.62
  C21                  CONDUIT     0.115     0  03:01      1.67    0.66    0.46
  V4                   ORIFICE     0.048     0  03:39                      1.00
  V5                   ORIFICE     0.034     0  04:15                      1.00
  V1                   ORIFICE     0.271     0  02:56                      1.00
  V6                   ORIFICE     0.150     0  03:41                      1.00
  V3                   ORIFICE     0.153     0  05:50                      1.00
  V2                   ORIFICE     0.082     0  03:23                      1.00
  
  
  ***************************
  Flow Classification Summary
  ***************************
  
  -------------------------------------------------------------------------------------
                      Adjusted    ---------- Fraction of Time in Flow Class ---------- 
                       /Actual         Up    Down  Sub   Sup   Up    Down  Norm  Inlet 
  Conduit               Length    Dry  Dry   Dry   Crit  Crit  Crit  Crit  Ltd   Ctrl  
  -------------------------------------------------------------------------------------
  C1                      1.00   0.00  0.00  0.00  0.92  0.08  0.00  0.00  0.95  0.00
  C6                      1.00   0.00  0.00  0.00  0.01  0.99  0.00  0.00  0.00  0.00
  C2                      1.00   0.00  0.00  0.00  0.13  0.87  0.00  0.00  0.94  0.00
  C9                      1.00   0.00  0.00  0.00  1.00  0.00  0.00  0.00  1.00  0.00
  C16                     1.00   0.00  0.00  0.00  0.59  0.41  0.00  0.00  0.48  0.00
  C3                      1.00   0.00  0.00  0.00  0.05  0.94  0.00  0.00  0.07  0.00
  C19                     1.00   0.00  0.00  0.00  1.00  0.00  0.00  0.00  1.00  0.00
  C11                     1.00   0.00  0.00  0.00  0.29  0.71  0.00  0.00  1.00  0.00
  C20                     1.00   0.00  0.00  0.00  0.63  0.37  0.00  0.00  0.98  0.00
  C22                     1.00   0.00  0.00  0.00  0.97  0.03  0.00  0.00  1.00  0.00
  C12                     1.00   0.00  0.00  0.00  0.36  0.64  0.00  0.00  0.60  0.00
  C17                     1.00   0.00  0.00  0.00  0.50  0.50  0.00  0.00  0.97  0.00
  C10                     1.00   0.00  0.00  0.00  0.94  0.06  0.00  0.00  0.97  0.00
  C13                     1.00   0.00  0.00  0.00  0.87  0.13  0.00  0.00  0.91  0.00
  C18                     1.00   0.00  0.00  0.00  0.81  0.19  0.00  0.00  0.97  0.00
  C23                     1.00   0.00  0.00  0.00  0.90  0.10  0.00  0.00  0.94  0.00
  C4                      1.00   0.00  0.00  0.00  0.96  0.04  0.00  0.00  0.98  0.00
  C7                      1.00   0.00  0.00  0.00  0.91  0.09  0.00  0.00  0.96  0.00
  C14                     1.00   0.00  0.00  0.00  0.00  0.99  0.00  0.00  0.00  0.00
  C5                      1.00   0.00  0.00  0.00  0.89  0.11  0.00  0.00  0.98  0.00
  C8                      1.00   0.00  0.00  0.00  0.01  0.99  0.00  0.00  0.00  0.00
  C15                     1.00   0.00  0.00  0.00  0.00  1.00  0.00  0.00  0.00  0.00
  C21                     1.00   0.00  0.00  0.00  0.00  1.00  0.00  0.00  0.00  0.00
  
  
  *************************
  Conduit Surcharge Summary
  *************************
  
  ----------------------------------------------------------------------------
                                                           Hours        Hours 
                         --------- Hours Full --------   Above Full   Capacity
  Conduit                Both Ends  Upstream  Dnstream   Normal Flow   Limited
  ----------------------------------------------------------------------------
  C10                         0.01      0.01      4.44      0.01         0.01
  C13                         0.01      0.01      4.85      0.01         0.01
  C23                         0.01      0.01      5.81      0.01         0.01
  C4                          0.01      0.01      5.82      0.01         0.01
  C7                          0.01      0.01      3.57      0.01         0.01
  

  Analysis begun on:  Fri Sep  3 17:38:12 2021
  Analysis ended on:  Fri Sep  3 17:38:13 2021
  Total elapsed time: 00:00:01