
  EPA STORM WATER MANAGEMENT MODEL - VERSION 5.1 (Build 5.3.0.dev0)
  --------------------------------------------------------------

  
  *********************************************************
  NOTE: The summary statistics displayed in this report are
  based on results found at every computational time step,  
  not just on results from each reporting time step.
  *********************************************************
  
  ****************
  Analysis Options
  ****************
  Flow Units ............... CMS
  Process Models:
    Rainfall/Runoff ........ YES
    RDII ................... NO
    Snowmelt ............... NO
    Groundwater ............ NO
    Flow Routing ........... YES
    Ponding Allowed ........ YES
    Water Quality .......... NO
  Infiltration Method ...... HORTON
  Flow Routing Method ...... DYNWAVE
  Surcharge Method ......... EXTRAN
  Starting Date ............ 08/28/2015 08:00:00
  Ending Date .............. 08/28/2015 15:50:00
  Antecedent Dry Days ...... 0.0
  Report Time Step ......... 00:01:00
  Wet Time Step ............ 00:01:00
  Dry Time Step ............ 00:01:00
  Routing Time Step ........ 5.00 sec
  Variable Time Step ....... YES
  Maximum Trials ........... 8
  Number of Threads ........ 1
  Head Tolerance ........... 0.001500 m
  
  
  **************************        Volume         Depth
  Runoff Quantity Continuity     hectare-m            mm
  **************************     ---------       -------
  Total Precipitation ......         1.432         7.948
  Evaporation Loss .........         0.000         0.000
  Infiltration Loss ........         0.000         0.000
  Surface Runoff ...........         1.408         7.816
  Final Storage ............         0.024         0.133
  Continuity Error (%) .....        -0.009
  
  
  **************************        Volume        Volume
  Flow Routing Continuity        hectare-m      10^6 ltr
  **************************     ---------     ---------
  Dry Weather Inflow .......         0.396         3.955
  Wet Weather Inflow .......         1.408        14.084
  Groundwater Inflow .......         0.000         0.000
  RDII Inflow ..............         0.000         0.000
  External Inflow ..........         0.000         0.000
  External Outflow .........         0.594         5.943
  Flooding Loss ............         0.484         4.837
  Evaporation Loss .........         0.000         0.000
  Exfiltration Loss ........         0.000         0.000
  Initial Stored Volume ....         0.000         0.000
  Final Stored Volume ......         0.582         5.818
  Continuity Error (%) .....         7.993
  
  
  *************************
  Highest Continuity Errors
  *************************
  Node T5 (22.46%)
  Node T3 (17.10%)
  Node T1 (7.19%)
  Node T2 (6.98%)
  Node T6 (6.53%)
  
  
  ***************************
  Time-Step Critical Elements
  ***************************
  None
  
  
  ********************************
  Highest Flow Instability Indexes
  ********************************
  Link C13 (1)
  
  
  *************************
  Routing Time Step Summary
  *************************
  Minimum Time Step           :     4.50 sec
  Average Time Step           :     5.00 sec
  Maximum Time Step           :     5.00 sec
  Percent in Steady State     :     0.00
  Average Iterations per Step :     2.17
  Percent Not Converging      :     0.60
  
  
  ***************************
  Subcatchment Runoff Summary
  ***************************
  
  ------------------------------------------------------------------------------------------------------------------------------
                            Total      Total      Total      Total     Imperv       Perv      Total       Total     Peak  Runoff
                           Precip      Runon       Evap      Infil     Runoff     Runoff     Runoff      Runoff   Runoff   Coeff
  Subcatchment                 mm         mm         mm         mm         mm         mm         mm    10^6 ltr      CMS
  ------------------------------------------------------------------------------------------------------------------------------
  SC01                       7.95       0.00       0.00       0.00       7.86       0.00       7.86        2.59     0.80   0.989
  SC02                       7.95       0.00       0.00       0.00       7.86       0.00       7.86        1.79     0.54   0.988
  SC03                       7.95       0.00       0.00       0.00       7.88       0.00       7.88        1.42     0.46   0.991
  SC04                       7.95       0.00       0.00       0.00       7.75       0.00       7.75        0.53     0.14   0.975
  SC05                       7.95       0.00       0.00       0.00       7.85       0.00       7.85        1.23     0.37   0.988
  SC06                       7.95       0.00       0.00       0.00       7.70       0.00       7.70        2.51     0.61   0.968
  SC07                       7.95       0.00       0.00       0.00       7.75       0.00       7.75        0.37     0.09   0.975
  SC08                       7.95       0.00       0.00       0.00       7.83       0.00       7.83        2.19     0.63   0.985
  SC09                       7.95       0.00       0.00       0.00       7.80       0.00       7.80        0.54     0.15   0.982
  SC010                      7.95       0.00       0.00       0.00       7.83       0.00       7.83        0.92     0.26   0.986
  
  
  ******************
  Node Depth Summary
  ******************
  
  ---------------------------------------------------------------------------------
                                 Average  Maximum  Maximum  Time of Max    Reported
                                   Depth    Depth      HGL   Occurrence   Max Depth
  Node                 Type       Meters   Meters   Meters  days hr:min      Meters
  ---------------------------------------------------------------------------------
  J1                   JUNCTION     0.08     0.21    34.21     0  03:01        0.21
  J3                   JUNCTION     0.13     0.16    18.16     0  03:57        0.16
  CSO7                 JUNCTION     0.17     1.20    35.20     0  02:45        1.20
  J5                   JUNCTION     0.07     0.15    32.15     0  03:01        0.15
  CSO9                 JUNCTION     0.19     2.00    42.00     0  02:55        2.00
  J8                   JUNCTION     0.11     0.28    36.28     0  03:01        0.28
  CSO8                 JUNCTION     0.22     2.00    34.00     0  02:53        2.00
  J10                  JUNCTION     0.10     0.29    29.29     0  03:01        0.29
  J13                  JUNCTION     0.07     0.20    29.20     0  03:01        0.20
  J15                  JUNCTION     0.20     0.38    15.38     0  03:02        0.38
  J16                  JUNCTION     0.07     0.22    30.22     0  03:01        0.22
  CSO10                JUNCTION     0.15     1.00    31.00     0  02:52        1.00
  J12                  JUNCTION     0.34     0.55    26.55     0  05:41        0.55
  J4                   JUNCTION     0.16     1.20    34.20     0  02:45        0.77
  J6                   JUNCTION     0.08     0.11    25.11     0  03:43        0.11
  J2                   JUNCTION     0.07     0.08    25.08     0  03:56        0.08
  J19                  JUNCTION     0.14     0.17     8.17     0  02:40        0.17
  J9                   JUNCTION     0.13     0.16    29.16     0  03:51        0.16
  J14                  JUNCTION     0.14     0.18    20.18     0  06:23        0.18
  J17                  JUNCTION     0.10     0.13    20.13     0  03:27        0.13
  J7                   JUNCTION     0.09     0.23    39.23     0  03:04        0.23
  J11                  JUNCTION     0.10     0.30    31.30     0  02:57        0.30
  J18                  JUNCTION     0.06     0.16    29.16     0  03:04        0.16
  Out_to_WWTP          OUTFALL      0.14     0.17     6.17     0  02:39        0.17
  T5                   STORAGE      3.31     5.00    32.00     0  03:06        5.00
  T4                   STORAGE      1.56     3.22    30.22     0  03:41        3.22
  T6                   STORAGE      2.59     5.00    36.00     0  03:03        5.00
  T3                   STORAGE      2.98     4.55    26.55     0  05:37        4.55
  T2                   STORAGE      1.49     3.17    24.17     0  03:25        3.17
  T1                   STORAGE      3.68     5.00    15.00     0  02:39        5.00
  
  
  *******************
  Node Inflow Summary
  *******************
  
  -------------------------------------------------------------------------------------------------
                                  Maximum  Maximum                  Lateral       Total        Flow
                                  Lateral    Total  Time of Max      Inflow      Inflow     Balance
                                   Inflow   Inflow   Occurrence      Volume      Volume       Error
  Node                 Type           CMS      CMS  days hr:min    10^6 ltr    10^6 ltr     Percent
  -------------------------------------------------------------------------------------------------
  J1                   JUNCTION     0.392    0.392     0  03:01        1.79        1.79       0.025
  J3                   JUNCTION     0.000    0.281     0  03:56           0         5.6       0.831
  CSO7                 JUNCTION     0.106    0.106     0  03:01       0.659       0.659       0.070
  J5                   JUNCTION     0.142    0.214     0  03:01       0.662         1.3       0.096
  CSO9                 JUNCTION     0.155    0.155     0  03:01       0.735       0.735       0.067
  J8                   JUNCTION     0.648    0.774     0  03:01        3.45        4.17       0.099
  CSO8                 JUNCTION     0.636    0.636     0  03:01        2.48        2.48       0.024
  J10                  JUNCTION     0.478    0.967     0  03:01         1.8        4.24       0.075
  J13                  JUNCTION     0.559    0.559     0  03:01        2.25        2.25      -0.211
  J15                  JUNCTION     0.000    1.336     0  03:01           0        11.7       0.946
  J16                  JUNCTION     0.818    0.818     0  03:01        3.15        3.15      -0.025
  CSO10                JUNCTION     0.271    0.271     0  03:01        1.06        1.06       0.034
  J12                  JUNCTION     0.000    1.110     0  03:01           0        7.41       3.355
  J4                   JUNCTION     0.000    0.071     0  03:01           0       0.637       0.530
  J6                   JUNCTION     0.000    0.064     0  03:41           0        1.13       0.402
  J2                   JUNCTION     0.000    0.039     0  03:06           0       0.825       0.644
  J19                  JUNCTION     0.000    0.271     0  02:39           0        5.96       0.213
  J9                   JUNCTION     0.000    0.175     0  03:03           0         3.2       0.612
  J14                  JUNCTION     0.000    0.181     0  05:37           0        3.67       0.264
  J17                  JUNCTION     0.000    0.111     0  03:25           0        1.93       0.476
  J7                   JUNCTION     0.000    0.127     0  03:03           0       0.727       0.433
  J11                  JUNCTION     0.000    0.486     0  02:57           0        2.44       0.255
  J18                  JUNCTION     0.000    0.202     0  03:04           0        1.04       0.056
  Out_to_WWTP          OUTFALL      0.000    0.271     0  02:40           0        5.94       0.000
  T5                   STORAGE      0.000    0.385     0  03:01           0        1.79      28.965
  T4                   STORAGE      0.000    0.210     0  03:01           0        1.29       6.237
  T6                   STORAGE      0.000    0.757     0  03:01           0        4.17       6.984
  T3                   STORAGE      0.000    1.081     0  03:02           0        7.17      20.624
  T2                   STORAGE      0.000    0.548     0  03:01           0        2.26       7.508
  T1                   STORAGE      0.000    1.275     0  03:02           0        11.6       7.752
  
  
  **********************
  Node Surcharge Summary
  **********************
  
  Surcharging occurs when water rises above the top of the highest conduit.
  ---------------------------------------------------------------------
                                               Max. Height   Min. Depth
                                   Hours       Above Crown    Below Rim
  Node                 Type      Surcharged         Meters       Meters
  ---------------------------------------------------------------------
  CSO7                 JUNCTION        0.59          0.945        0.000
  CSO9                 JUNCTION        0.62          1.682        0.000
  CSO8                 JUNCTION        0.55          1.547        0.000
  CSO10                JUNCTION        0.30          0.560        0.000
  J4                   JUNCTION        0.55          0.900        0.800
  
  
  *********************
  Node Flooding Summary
  *********************
  
  Flooding refers to all water that overflows a node, whether it ponds or not.
  --------------------------------------------------------------------------
                                                             Total   Maximum
                                 Maximum   Time of Max       Flood    Ponded
                        Hours       Rate    Occurrence      Volume     Depth
  Node                 Flooded       CMS   days hr:min    10^6 ltr    Meters
  --------------------------------------------------------------------------
  CSO7                    0.40     0.035      0  03:01       0.021     0.000
  CSO9                    0.15     0.028      0  03:01       0.007     0.000
  CSO8                    0.18     0.150      0  03:01       0.045     0.000
  CSO10                   0.20     0.068      0  03:01       0.022     0.000
  T5                      0.94     0.218      0  03:06       0.158     0.000
  T6                      0.79     0.553      0  03:03       0.518     0.000
  T1                      5.18     1.004      0  03:02       4.066     0.000
  
  
  **********************
  Storage Volume Summary
  **********************
  
  --------------------------------------------------------------------------------------------------
                         Average     Avg  Evap Exfil       Maximum     Max    Time of Max    Maximum
                          Volume    Pcnt  Pcnt  Pcnt        Volume    Pcnt     Occurrence    Outflow
  Storage Unit           1000 m3    Full  Loss  Loss       1000 m3    Full    days hr:min        CMS
  --------------------------------------------------------------------------------------------------
  T5                       0.331      66     0     0         0.500     100       0  03:06      0.039
  T4                       0.156      31     0     0         0.322      64       0  03:41      0.064
  T6                       0.311      52     0     0         0.600     100       0  03:03      0.175
  T3                       1.550      60     0     0         2.366      91       0  05:37      0.181
  T2                       0.298      30     0     0         0.634      63       0  03:25      0.111
  T1                       0.515      74     0     0         0.700     100       0  02:39      0.271
  
  
  ***********************
  Outfall Loading Summary
  ***********************
  
  -----------------------------------------------------------
                         Flow       Avg       Max       Total
                         Freq      Flow      Flow      Volume
  Outfall Node           Pcnt       CMS       CMS    10^6 ltr
  -----------------------------------------------------------
  Out_to_WWTP           99.01     0.213     0.271       5.943
  -----------------------------------------------------------
  System                99.01     0.213     0.271       5.943
  
  
  ********************
  Link Flow Summary
  ********************
  
  -----------------------------------------------------------------------------
                                 Maximum  Time of Max   Maximum    Max/    Max/
                                  |Flow|   Occurrence   |Veloc|    Full    Full
  Link                 Type          CMS  days hr:min     m/sec    Flow   Depth
  -----------------------------------------------------------------------------
  C1                   CONDUIT     0.039     0  03:56      0.91    0.01    0.12
  C6                   CONDUIT     0.071     0  03:01      1.29    1.13    0.76
  C2                   CONDUIT     0.064     0  03:43      1.31    0.07    0.23
  C9                   CONDUIT     0.127     0  03:04      1.28    0.43    0.51
  C16                  CONDUIT     0.489     0  03:01      1.76    0.05    0.15
  C3                   CONDUIT     0.181     0  05:37      2.03    0.07    0.17
  C19                  CONDUIT     0.111     0  03:27      1.10    0.04    0.25
  C11                  CONDUIT     0.281     0  03:58      1.84    0.01    0.13
  C20                  CONDUIT     0.802     0  03:01      2.75    0.03    0.15
  C22                  CONDUIT     0.202     0  03:04      1.45    0.09    0.34
  C12                  CONDUIT     0.175     0  03:51      1.11    0.01    0.17
  C17                  CONDUIT     0.945     0  03:01      2.96    0.05    0.16
  C10                  CONDUIT     0.757     0  03:01      1.66    0.08    0.59
  C13                  CONDUIT     1.081     0  03:02      1.53    0.06    0.64
  C18                  CONDUIT     0.548     0  03:01      1.72    0.02    0.55
  C23                  CONDUIT     1.275     0  03:02      1.26    0.14    0.63
  C4                   CONDUIT     0.385     0  03:01      1.98    0.09    0.60
  C7                   CONDUIT     0.210     0  03:01      1.43    0.05    0.58
  C14                  CONDUIT     0.271     0  02:40      2.08    0.02    0.09
  C5                   CONDUIT     0.071     0  03:01      1.39    1.22    1.00
  C8                   CONDUIT     0.127     0  03:03      1.75    1.60    0.86
  C15                  CONDUIT     0.486     0  02:57      3.42    1.55    0.83
  C21                  CONDUIT     0.202     0  03:04      1.83    1.16    0.69
  V4                   ORIFICE     0.064     0  03:41                      1.00
  V5                   ORIFICE     0.039     0  03:06                      1.00
  V1                   ORIFICE     0.271     0  02:39                      1.00
  V6                   ORIFICE     0.175     0  03:03                      1.00
  V3                   ORIFICE     0.181     0  05:37                      1.00
  V2                   ORIFICE     0.111     0  03:25                      1.00
  
  
  ***************************
  Flow Classification Summary
  ***************************
  
  -------------------------------------------------------------------------------------
                      Adjusted    ---------- Fraction of Time in Flow Class ---------- 
                       /Actual         Up    Down  Sub   Sup   Up    Down  Norm  Inlet 
  Conduit               Length    Dry  Dry   Dry   Crit  Crit  Crit  Crit  Ltd   Ctrl  
  -------------------------------------------------------------------------------------
  C1                      1.00   0.00  0.00  0.00  0.92  0.08  0.00  0.00  0.95  0.00
  C6                      1.00   0.00  0.00  0.00  0.10  0.90  0.00  0.00  0.00  0.00
  C2                      1.00   0.00  0.00  0.00  0.04  0.96  0.00  0.00  0.94  0.00
  C9                      1.00   0.00  0.00  0.00  1.00  0.00  0.00  0.00  1.00  0.00
  C16                     1.00   0.00  0.00  0.00  0.55  0.45  0.00  0.00  0.38  0.00
  C3                      1.00   0.00  0.00  0.00  0.05  0.94  0.00  0.00  0.07  0.00
  C19                     1.00   0.00  0.00  0.00  1.00  0.00  0.00  0.00  1.00  0.00
  C11                     1.00   0.00  0.00  0.00  0.31  0.69  0.00  0.00  1.00  0.00
  C20                     1.00   0.00  0.00  0.00  0.62  0.38  0.00  0.00  0.98  0.00
  C22                     1.00   0.00  0.00  0.00  0.90  0.10  0.00  0.00  1.00  0.00
  C12                     1.00   0.00  0.00  0.00  0.93  0.07  0.00  0.00  1.00  0.00
  C17                     1.00   0.00  0.00  0.00  0.55  0.45  0.00  0.00  0.97  0.00
  C10                     1.00   0.00  0.00  0.00  0.94  0.06  0.00  0.00  0.97  0.00
  C13                     1.00   0.00  0.00  0.00  0.86  0.14  0.00  0.00  0.34  0.00
  C18                     1.00   0.00  0.00  0.00  0.82  0.18  0.00  0.00  0.97  0.00
  C23                     1.00   0.00  0.00  0.00  0.90  0.10  0.00  0.00  0.94  0.00
  C4                      1.00   0.00  0.00  0.00  0.96  0.04  0.00  0.00  0.98  0.00
  C7                      1.00   0.00  0.00  0.00  0.91  0.09  0.00  0.00  0.96  0.00
  C14                     1.00   0.00  0.00  0.00  0.00  0.99  0.00  0.00  0.00  0.00
  C5                      1.00   0.00  0.00  0.00  0.89  0.11  0.00  0.00  0.90  0.00
  C8                      1.00   0.00  0.00  0.00  0.12  0.88  0.00  0.00  0.00  0.00
  C15                     1.00   0.00  0.00  0.00  0.00  1.00  0.00  0.00  0.00  0.00
  C21                     1.00   0.00  0.00  0.00  0.00  1.00  0.00  0.00  0.00  0.00
  
  
  *************************
  Conduit Surcharge Summary
  *************************
  
  ----------------------------------------------------------------------------
                                                           Hours        Hours 
                         --------- Hours Full --------   Above Full   Capacity
  Conduit                Both Ends  Upstream  Dnstream   Normal Flow   Limited
  ----------------------------------------------------------------------------
  C6                          0.01      0.55      0.01      0.45         0.01
  C10                         0.01      0.01      5.50      0.01         0.01
  C13                         0.01      0.01      5.15      0.01         0.01
  C18                         0.01      0.01      2.61      0.01         0.01
  C23                         0.01      0.01      5.92      0.01         0.01
  C4                          0.01      0.01      5.93      0.01         0.01
  C7                          0.01      0.01      5.23      0.01         0.01
  C5                          0.59      0.59      0.71      0.67         0.56
  C8                          0.01      0.62      0.01      0.65         0.01
  C15                         0.01      0.55      0.01      0.64         0.01
  C21                         0.01      0.30      0.01      0.31         0.01
  

  Analysis begun on:  Fri Sep  3 17:39:10 2021
  Analysis ended on:  Fri Sep  3 17:39:10 2021
  Total elapsed time: < 1 sec