
  EPA STORM WATER MANAGEMENT MODEL - VERSION 5.1 (Build 5.3.0.dev0)
  --------------------------------------------------------------

  
  *********************************************************
  NOTE: The summary statistics displayed in this report are
  based on results found at every computational time step,  
  not just on results from each reporting time step.
  *********************************************************
  
  ****************
  Analysis Options
  ****************
  Flow Units ............... CMS
  Process Models:
    Rainfall/Runoff ........ YES
    RDII ................... NO
    Snowmelt ............... NO
    Groundwater ............ NO
    Flow Routing ........... YES
    Ponding Allowed ........ YES
    Water Quality .......... NO
  Infiltration Method ...... HORTON
  Flow Routing Method ...... DYNWAVE
  Surcharge Method ......... EXTRAN
  Starting Date ............ 08/28/2015 08:00:00
  Ending Date .............. 08/28/2015 15:50:00
  Antecedent Dry Days ...... 0.0
  Report Time Step ......... 00:01:00
  Wet Time Step ............ 00:01:00
  Dry Time Step ............ 00:01:00
  Routing Time Step ........ 5.00 sec
  Variable Time Step ....... YES
  Maximum Trials ........... 8
  Number of Threads ........ 1
  Head Tolerance ........... 0.001500 m
  
  
  **************************        Volume         Depth
  Runoff Quantity Continuity     hectare-m            mm
  **************************     ---------       -------
  Total Precipitation ......         1.799         9.981
  Evaporation Loss .........         0.000         0.000
  Infiltration Loss ........         0.000         0.000
  Surface Runoff ...........         1.775         9.848
  Final Storage ............         0.024         0.134
  Continuity Error (%) .....        -0.009
  
  
  **************************        Volume        Volume
  Flow Routing Continuity        hectare-m      10^6 ltr
  **************************     ---------     ---------
  Dry Weather Inflow .......         0.396         3.955
  Wet Weather Inflow .......         1.775        17.746
  Groundwater Inflow .......         0.000         0.000
  RDII Inflow ..............         0.000         0.000
  External Inflow ..........         0.000         0.000
  External Outflow .........         0.603         6.033
  Flooding Loss ............         0.749         7.494
  Evaporation Loss .........         0.000         0.000
  Exfiltration Loss ........         0.000         0.000
  Initial Stored Volume ....         0.000         0.000
  Final Stored Volume ......         0.663         6.627
  Continuity Error (%) .....         7.126
  
  
  *************************
  Highest Continuity Errors
  *************************
  Node T5 (19.13%)
  Node T3 (16.81%)
  Node T2 (9.07%)
  Node J12 (7.14%)
  Node T4 (6.57%)
  
  
  ***************************
  Time-Step Critical Elements
  ***************************
  None
  
  
  ********************************
  Highest Flow Instability Indexes
  ********************************
  Link C13 (2)
  
  
  *************************
  Routing Time Step Summary
  *************************
  Minimum Time Step           :     4.50 sec
  Average Time Step           :     5.00 sec
  Maximum Time Step           :     5.00 sec
  Percent in Steady State     :     0.00
  Average Iterations per Step :     2.18
  Percent Not Converging      :     0.66
  
  
  ***************************
  Subcatchment Runoff Summary
  ***************************
  
  ------------------------------------------------------------------------------------------------------------------------------
                            Total      Total      Total      Total     Imperv       Perv      Total       Total     Peak  Runoff
                           Precip      Runon       Evap      Infil     Runoff     Runoff     Runoff      Runoff   Runoff   Coeff
  Subcatchment                 mm         mm         mm         mm         mm         mm         mm    10^6 ltr      CMS
  ------------------------------------------------------------------------------------------------------------------------------
  SC01                       9.98       0.00       0.00       0.00       9.89       0.00       9.89        3.27     1.02   0.991
  SC02                       9.98       0.00       0.00       0.00       9.89       0.00       9.89        2.25     0.69   0.991
  SC03                       9.98       0.00       0.00       0.00       9.91       0.00       9.91        1.78     0.59   0.993
  SC04                       9.98       0.00       0.00       0.00       9.78       0.00       9.78        0.67     0.18   0.980
  SC05                       9.98       0.00       0.00       0.00       9.89       0.00       9.89        1.54     0.48   0.991
  SC06                       9.98       0.00       0.00       0.00       9.72       0.00       9.72        3.17     0.80   0.974
  SC07                       9.98       0.00       0.00       0.00       9.78       0.00       9.78        0.46     0.12   0.980
  SC08                       9.98       0.00       0.00       0.00       9.86       0.00       9.86        2.76     0.81   0.988
  SC09                       9.98       0.00       0.00       0.00       9.84       0.00       9.84        0.68     0.19   0.985
  SC010                      9.98       0.00       0.00       0.00       9.87       0.00       9.87        1.16     0.34   0.989
  
  
  ******************
  Node Depth Summary
  ******************
  
  ---------------------------------------------------------------------------------
                                 Average  Maximum  Maximum  Time of Max    Reported
                                   Depth    Depth      HGL   Occurrence   Max Depth
  Node                 Type       Meters   Meters   Meters  days hr:min      Meters
  ---------------------------------------------------------------------------------
  J1                   JUNCTION     0.08     0.23    34.23     0  03:01        0.23
  J3                   JUNCTION     0.14     0.17    18.17     0  03:55        0.17
  CSO7                 JUNCTION     0.21     1.20    35.20     0  02:30        1.20
  J5                   JUNCTION     0.07     0.17    32.17     0  03:01        0.17
  CSO9                 JUNCTION     0.26     2.00    42.00     0  02:45        2.00
  J8                   JUNCTION     0.12     0.32    36.32     0  03:01        0.31
  CSO8                 JUNCTION     0.28     2.00    34.00     0  02:43        2.00
  J10                  JUNCTION     0.11     0.31    29.31     0  03:01        0.31
  J13                  JUNCTION     0.07     0.22    29.22     0  03:01        0.22
  J15                  JUNCTION     0.22     0.42    15.42     0  03:02        0.42
  J16                  JUNCTION     0.08     0.25    30.25     0  03:01        0.24
  CSO10                JUNCTION     0.18     1.00    31.00     0  02:42        1.00
  J12                  JUNCTION     0.59     0.96    26.96     0  05:24        0.96
  J4                   JUNCTION     0.18     1.17    34.17     0  02:30        0.80
  J6                   JUNCTION     0.09     0.12    25.12     0  03:42        0.12
  J2                   JUNCTION     0.07     0.08    25.08     0  03:45        0.08
  J19                  JUNCTION     0.15     0.17     8.17     0  02:28        0.17
  J9                   JUNCTION     0.13     0.16    29.16     0  03:55        0.16
  J14                  JUNCTION     0.15     0.19    20.19     0  06:11        0.19
  J17                  JUNCTION     0.11     0.14    20.14     0  03:26        0.14
  J7                   JUNCTION     0.09     0.23    39.23     0  03:07        0.23
  J11                  JUNCTION     0.11     0.30    31.30     0  02:47        0.30
  J18                  JUNCTION     0.06     0.16    29.16     0  03:07        0.16
  Out_to_WWTP          OUTFALL      0.14     0.17     6.17     0  02:27        0.17
  T5                   STORAGE      3.41     5.00    32.00     0  02:54        5.00
  T4                   STORAGE      2.00     4.05    31.05     0  03:41        4.05
  T6                   STORAGE      2.74     5.00    36.00     0  02:51        5.00
  T3                   STORAGE      3.32     4.97    26.97     0  05:19        4.97
  T2                   STORAGE      1.99     4.16    25.16     0  03:24        4.16
  T1                   STORAGE      3.76     5.00    15.00     0  02:27        5.00
  
  
  *******************
  Node Inflow Summary
  *******************
  
  -------------------------------------------------------------------------------------------------
                                  Maximum  Maximum                  Lateral       Total        Flow
                                  Lateral    Total  Time of Max      Inflow      Inflow     Balance
                                   Inflow   Inflow   Occurrence      Volume      Volume       Error
  Node                 Type           CMS      CMS  days hr:min    10^6 ltr    10^6 ltr     Percent
  -------------------------------------------------------------------------------------------------
  J1                   JUNCTION     0.498    0.498     0  03:01         2.1         2.1       0.017
  J3                   JUNCTION     0.000    0.298     0  03:54           0        5.98       0.809
  CSO7                 JUNCTION     0.135    0.135     0  03:01       0.755       0.755       0.060
  J5                   JUNCTION     0.184    0.256     0  03:01       0.802        1.49       0.078
  CSO9                 JUNCTION     0.199    0.199     0  03:01       0.875       0.875       0.059
  J8                   JUNCTION     0.835    0.963     0  03:01        4.11        4.94       0.079
  CSO8                 JUNCTION     0.819    0.819     0  03:01        3.05        3.05       0.017
  J10                  JUNCTION     0.608    1.093     0  03:01        2.17        5.02      -0.010
  J13                  JUNCTION     0.713    0.713     0  03:01        2.72        2.72      -0.192
  J15                  JUNCTION     0.000    1.605     0  03:01           0        13.2       0.881
  J16                  JUNCTION     1.045    1.045     0  03:01        3.82        3.82      -0.031
  CSO10                JUNCTION     0.347    0.347     0  03:01         1.3         1.3       0.029
  J12                  JUNCTION     0.000    1.241     0  03:01           0        8.51       7.693
  J4                   JUNCTION     0.000    0.072     0  03:01           0       0.695       0.486
  J6                   JUNCTION     0.000    0.072     0  03:41           0        1.27       0.399
  J2                   JUNCTION     0.000    0.039     0  02:54           0       0.841       0.631
  J19                  JUNCTION     0.000    0.271     0  02:27           0        6.05       0.210
  J9                   JUNCTION     0.000    0.175     0  02:51           0         3.3       0.561
  J14                  JUNCTION     0.000    0.189     0  05:19           0        3.89       0.257
  J17                  JUNCTION     0.000    0.128     0  03:24           0        2.23       0.470
  J7                   JUNCTION     0.000    0.127     0  03:07           0       0.836       0.374
  J11                  JUNCTION     0.000    0.486     0  02:47           0        2.86       0.223
  J18                  JUNCTION     0.000    0.202     0  03:07           0        1.21       0.039
  Out_to_WWTP          OUTFALL      0.000    0.271     0  02:29           0        6.03       0.000
  T5                   STORAGE      0.000    0.490     0  03:01           0         2.1      23.656
  T4                   STORAGE      0.000    0.252     0  03:01           0        1.49       7.034
  T6                   STORAGE      0.000    0.942     0  03:01           0        4.94       6.029
  T3                   STORAGE      0.000    1.211     0  03:02           0         7.9      20.210
  T2                   STORAGE      0.000    0.701     0  03:01           0        2.72       9.972
  T1                   STORAGE      0.000    1.529     0  03:02           0        13.1       6.792
  
  
  **********************
  Node Surcharge Summary
  **********************
  
  Surcharging occurs when water rises above the top of the highest conduit.
  ---------------------------------------------------------------------
                                               Max. Height   Min. Depth
                                   Hours       Above Crown    Below Rim
  Node                 Type      Surcharged         Meters       Meters
  ---------------------------------------------------------------------
  CSO7                 JUNCTION        0.91          0.945        0.000
  CSO9                 JUNCTION        0.95          1.682        0.000
  CSO8                 JUNCTION        0.87          1.547        0.000
  CSO10                JUNCTION        0.55          0.560        0.000
  J4                   JUNCTION        0.87          0.867        0.833
  
  
  *********************
  Node Flooding Summary
  *********************
  
  Flooding refers to all water that overflows a node, whether it ponds or not.
  --------------------------------------------------------------------------
                                                             Total   Maximum
                                 Maximum   Time of Max       Flood    Ponded
                        Hours       Rate    Occurrence      Volume     Depth
  Node                 Flooded       CMS   days hr:min    10^6 ltr    Meters
  --------------------------------------------------------------------------
  CSO7                    0.71     0.063      0  03:01       0.059     0.000
  CSO9                    0.36     0.072      0  03:01       0.038     0.000
  CSO8                    0.40     0.333      0  03:01       0.192     0.000
  CSO10                   0.41     0.145      0  03:01       0.086     0.000
  T5                      1.21     0.451      0  03:01       0.457     0.000
  T6                      1.07     0.767      0  03:01       1.171     0.000
  T1                      5.37     1.258      0  03:02       5.491     0.000
  
  
  **********************
  Storage Volume Summary
  **********************
  
  --------------------------------------------------------------------------------------------------
                         Average     Avg  Evap Exfil       Maximum     Max    Time of Max    Maximum
                          Volume    Pcnt  Pcnt  Pcnt        Volume    Pcnt     Occurrence    Outflow
  Storage Unit           1000 m3    Full  Loss  Loss       1000 m3    Full    days hr:min        CMS
  --------------------------------------------------------------------------------------------------
  T5                       0.341      68     0     0         0.500     100       0  02:54      0.039
  T4                       0.200      40     0     0         0.405      81       0  03:41      0.072
  T6                       0.328      55     0     0         0.600     100       0  02:51      0.175
  T3                       1.726      66     0     0         2.584      99       0  05:19      0.409
  T2                       0.397      40     0     0         0.831      83       0  03:24      0.128
  T1                       0.526      75     0     0         0.700     100       0  02:27      0.271
  
  
  ***********************
  Outfall Loading Summary
  ***********************
  
  -----------------------------------------------------------
                         Flow       Avg       Max       Total
                         Freq      Flow      Flow      Volume
  Outfall Node           Pcnt       CMS       CMS    10^6 ltr
  -----------------------------------------------------------
  Out_to_WWTP           99.01     0.216     0.271       6.033
  -----------------------------------------------------------
  System                99.01     0.216     0.271       6.033
  
  
  ********************
  Link Flow Summary
  ********************
  
  -----------------------------------------------------------------------------
                                 Maximum  Time of Max   Maximum    Max/    Max/
                                  |Flow|   Occurrence   |Veloc|    Full    Full
  Link                 Type          CMS  days hr:min     m/sec    Flow   Depth
  -----------------------------------------------------------------------------
  C1                   CONDUIT     0.039     0  03:45      0.91    0.01    0.12
  C6                   CONDUIT     0.072     0  03:01      1.29    1.14    0.78
  C2                   CONDUIT     0.072     0  03:42      1.40    0.08    0.24
  C9                   CONDUIT     0.127     0  03:07      1.28    0.43    0.55
  C16                  CONDUIT     0.488     0  02:55      1.79    0.05    0.15
  C3                   CONDUIT     0.189     0  05:20      2.06    0.07    0.18
  C19                  CONDUIT     0.128     0  03:26      1.18    0.04    0.28
  C11                  CONDUIT     0.298     0  03:55      1.85    0.01    0.14
  C20                  CONDUIT     1.026     0  03:01      3.03    0.03    0.16
  C22                  CONDUIT     0.202     0  03:07      1.45    0.09    0.36
  C12                  CONDUIT     0.175     0  03:54      0.77    0.01    0.28
  C17                  CONDUIT     1.067     0  03:01      3.07    0.05    0.26
  C10                  CONDUIT     0.942     0  03:01      1.66    0.10    0.61
  C13                  CONDUIT     1.211     0  03:02      1.53    0.07    0.74
  C18                  CONDUIT     0.701     0  03:01      1.72    0.03    0.56
  C23                  CONDUIT     1.529     0  03:02      1.28    0.17    0.64
  C4                   CONDUIT     0.490     0  03:01      1.98    0.12    0.62
  C7                   CONDUIT     0.252     0  03:01      1.43    0.06    0.58
  C14                  CONDUIT     0.271     0  02:29      2.08    0.02    0.09
  C5                   CONDUIT     0.072     0  03:01      1.40    1.23    1.00
  C8                   CONDUIT     0.127     0  03:07      1.75    1.60    0.86
  C15                  CONDUIT     0.486     0  02:47      3.42    1.55    0.83
  C21                  CONDUIT     0.202     0  03:07      1.82    1.16    0.69
  V4                   ORIFICE     0.072     0  03:41                      1.00
  V5                   ORIFICE     0.039     0  02:54                      1.00
  V1                   ORIFICE     0.271     0  02:27                      1.00
  V6                   ORIFICE     0.175     0  02:51                      1.00
  V3                   ORIFICE     0.189     0  05:19                      1.00
  V2                   ORIFICE     0.128     0  03:24                      1.00
  
  
  ***************************
  Flow Classification Summary
  ***************************
  
  -------------------------------------------------------------------------------------
                      Adjusted    ---------- Fraction of Time in Flow Class ---------- 
                       /Actual         Up    Down  Sub   Sup   Up    Down  Norm  Inlet 
  Conduit               Length    Dry  Dry   Dry   Crit  Crit  Crit  Crit  Ltd   Ctrl  
  -------------------------------------------------------------------------------------
  C1                      1.00   0.00  0.00  0.00  0.92  0.08  0.00  0.00  0.95  0.00
  C6                      1.00   0.00  0.00  0.00  0.14  0.86  0.00  0.00  0.00  0.00
  C2                      1.00   0.00  0.00  0.00  0.01  0.99  0.00  0.00  0.94  0.00
  C9                      1.00   0.00  0.00  0.00  1.00  0.00  0.00  0.00  1.00  0.00
  C16                     1.00   0.00  0.00  0.00  0.54  0.46  0.00  0.00  0.37  0.00
  C3                      1.00   0.00  0.00  0.00  0.05  0.94  0.00  0.00  0.07  0.00
  C19                     1.00   0.00  0.00  0.00  0.74  0.26  0.00  0.00  1.00  0.00
  C11                     1.00   0.00  0.00  0.00  0.32  0.68  0.00  0.00  1.00  0.00
  C20                     1.00   0.00  0.00  0.00  0.62  0.38  0.00  0.00  0.98  0.00
  C22                     1.00   0.00  0.00  0.00  0.83  0.17  0.00  0.00  1.00  0.00
  C12                     1.00   0.00  0.00  0.00  0.93  0.07  0.00  0.00  1.00  0.00
  C17                     1.00   0.00  0.00  0.00  0.59  0.41  0.00  0.00  0.97  0.00
  C10                     1.00   0.00  0.00  0.00  0.94  0.06  0.00  0.00  0.97  0.00
  C13                     1.00   0.00  0.00  0.00  0.84  0.16  0.00  0.00  0.30  0.00
  C18                     1.00   0.00  0.00  0.00  0.82  0.18  0.00  0.00  0.97  0.00
  C23                     1.00   0.00  0.00  0.00  0.90  0.10  0.00  0.00  0.94  0.00
  C4                      1.00   0.00  0.00  0.00  0.96  0.04  0.00  0.00  0.98  0.00
  C7                      1.00   0.00  0.00  0.00  0.91  0.09  0.00  0.00  0.96  0.00
  C14                     1.00   0.00  0.00  0.00  0.00  0.99  0.00  0.00  0.00  0.00
  C5                      1.00   0.00  0.00  0.00  0.90  0.10  0.00  0.00  0.86  0.00
  C8                      1.00   0.00  0.00  0.00  0.17  0.83  0.00  0.00  0.00  0.00
  C15                     1.00   0.00  0.00  0.00  0.00  1.00  0.00  0.00  0.00  0.00
  C21                     1.00   0.00  0.00  0.00  0.00  1.00  0.00  0.00  0.00  0.00
  
  
  *************************
  Conduit Surcharge Summary
  *************************
  
  ----------------------------------------------------------------------------
                                                           Hours        Hours 
                         --------- Hours Full --------   Above Full   Capacity
  Conduit                Both Ends  Upstream  Dnstream   Normal Flow   Limited
  ----------------------------------------------------------------------------
  C6                          0.01      0.87      0.01      0.77         0.01
  C10                         0.01      0.01      5.71      0.01         0.01
  C13                         0.01      0.01      5.34      0.01         0.01
  C18                         0.01      0.01      3.82      0.01         0.01
  C23                         0.01      0.01      6.02      0.01         0.01
  C4                          0.01      0.01      6.05      0.01         0.01
  C7                          0.01      0.01      5.59      0.01         0.01
  C5                          0.91      0.91      1.04      1.01         0.88
  C8                          0.01      0.95      0.01      0.98         0.01
  C15                         0.01      0.87      0.01      0.97         0.01
  C21                         0.01      0.55      0.01      0.56         0.01
  

  Analysis begun on:  Fri Sep  3 17:41:06 2021
  Analysis ended on:  Fri Sep  3 17:41:06 2021
  Total elapsed time: < 1 sec