
  EPA STORM WATER MANAGEMENT MODEL - VERSION 5.1 (Build 5.3.0.dev0)
  --------------------------------------------------------------

  
  *********************************************************
  NOTE: The summary statistics displayed in this report are
  based on results found at every computational time step,  
  not just on results from each reporting time step.
  *********************************************************
  
  ****************
  Analysis Options
  ****************
  Flow Units ............... CMS
  Process Models:
    Rainfall/Runoff ........ YES
    RDII ................... NO
    Snowmelt ............... NO
    Groundwater ............ NO
    Flow Routing ........... YES
    Ponding Allowed ........ YES
    Water Quality .......... NO
  Infiltration Method ...... HORTON
  Flow Routing Method ...... DYNWAVE
  Surcharge Method ......... EXTRAN
  Starting Date ............ 08/28/2015 08:00:00
  Ending Date .............. 08/28/2015 15:50:00
  Antecedent Dry Days ...... 0.0
  Report Time Step ......... 00:01:00
  Wet Time Step ............ 00:01:00
  Dry Time Step ............ 00:01:00
  Routing Time Step ........ 5.00 sec
  Variable Time Step ....... YES
  Maximum Trials ........... 8
  Number of Threads ........ 1
  Head Tolerance ........... 0.001500 m
  
  
  **************************        Volume         Depth
  Runoff Quantity Continuity     hectare-m            mm
  **************************     ---------       -------
  Total Precipitation ......         1.281         7.107
  Evaporation Loss .........         0.000         0.000
  Infiltration Loss ........         0.000         0.000
  Surface Runoff ...........         1.257         6.978
  Final Storage ............         0.023         0.130
  Continuity Error (%) .....        -0.007
  
  
  **************************        Volume        Volume
  Flow Routing Continuity        hectare-m      10^6 ltr
  **************************     ---------     ---------
  Dry Weather Inflow .......         0.396         3.955
  Wet Weather Inflow .......         1.257        12.574
  Groundwater Inflow .......         0.000         0.000
  RDII Inflow ..............         0.000         0.000
  External Inflow ..........         0.000         0.000
  External Outflow .........         0.600         6.005
  Flooding Loss ............         0.370         3.705
  Evaporation Loss .........         0.000         0.000
  Exfiltration Loss ........         0.000         0.000
  Initial Stored Volume ....         0.000         0.000
  Final Stored Volume ......         0.543         5.432
  Continuity Error (%) .....         8.399
  
  
  *************************
  Highest Continuity Errors
  *************************
  Node T5 (24.22%)
  Node T3 (16.87%)
  Node T1 (7.54%)
  Node T6 (6.77%)
  Node T2 (5.63%)
  
  
  ***************************
  Time-Step Critical Elements
  ***************************
  None
  
  
  ********************************
  Highest Flow Instability Indexes
  ********************************
  Link C13 (1)
  
  
  *************************
  Routing Time Step Summary
  *************************
  Minimum Time Step           :     4.50 sec
  Average Time Step           :     5.00 sec
  Maximum Time Step           :     5.00 sec
  Percent in Steady State     :     0.00
  Average Iterations per Step :     2.10
  Percent Not Converging      :     0.64
  
  
  ***************************
  Subcatchment Runoff Summary
  ***************************
  
  ------------------------------------------------------------------------------------------------------------------------------
                            Total      Total      Total      Total     Imperv       Perv      Total       Total     Peak  Runoff
                           Precip      Runon       Evap      Infil     Runoff     Runoff     Runoff      Runoff   Runoff   Coeff
  Subcatchment                 mm         mm         mm         mm         mm         mm         mm    10^6 ltr      CMS
  ------------------------------------------------------------------------------------------------------------------------------
  SC01                       7.11       0.00       0.00       0.00       7.02       0.00       7.02        2.32     0.46   0.988
  SC02                       7.11       0.00       0.00       0.00       7.02       0.00       7.02        1.60     0.32   0.987
  SC03                       7.11       0.00       0.00       0.00       7.04       0.00       7.04        1.27     0.26   0.990
  SC04                       7.11       0.00       0.00       0.00       6.91       0.00       6.91        0.48     0.09   0.973
  SC05                       7.11       0.00       0.00       0.00       7.02       0.00       7.02        1.09     0.22   0.987
  SC06                       7.11       0.00       0.00       0.00       6.86       0.00       6.86        2.23     0.40   0.966
  SC07                       7.11       0.00       0.00       0.00       6.92       0.00       6.92        0.33     0.06   0.973
  SC08                       7.11       0.00       0.00       0.00       6.99       0.00       6.99        1.96     0.38   0.984
  SC09                       7.11       0.00       0.00       0.00       6.97       0.00       6.97        0.48     0.09   0.980
  SC010                      7.11       0.00       0.00       0.00       6.99       0.00       6.99        0.82     0.16   0.984
  
  
  ******************
  Node Depth Summary
  ******************
  
  ---------------------------------------------------------------------------------
                                 Average  Maximum  Maximum  Time of Max    Reported
                                   Depth    Depth      HGL   Occurrence   Max Depth
  Node                 Type       Meters   Meters   Meters  days hr:min      Meters
  ---------------------------------------------------------------------------------
  J1                   JUNCTION     0.07     0.16    34.16     0  03:01        0.16
  J3                   JUNCTION     0.13     0.16    18.16     0  04:01        0.16
  CSO7                 JUNCTION     0.13     1.20    35.20     0  02:53        1.20
  J5                   JUNCTION     0.07     0.14    32.14     0  03:01        0.14
  CSO9                 JUNCTION     0.14     0.98    40.98     0  03:01        0.98
  J8                   JUNCTION     0.11     0.24    36.24     0  03:01        0.24
  CSO8                 JUNCTION     0.16     1.10    33.10     0  03:01        1.10
  J10                  JUNCTION     0.10     0.25    29.25     0  03:01        0.25
  J13                  JUNCTION     0.07     0.16    29.16     0  03:01        0.16
  J15                  JUNCTION     0.20     0.33    15.33     0  03:02        0.33
  J16                  JUNCTION     0.07     0.17    30.17     0  03:01        0.17
  CSO10                JUNCTION     0.12     0.38    30.38     0  03:01        0.38
  J12                  JUNCTION     0.23     0.35    26.35     0  05:46        0.35
  J4                   JUNCTION     0.14     1.10    34.10     0  02:53        0.76
  J6                   JUNCTION     0.08     0.11    25.11     0  03:37        0.11
  J2                   JUNCTION     0.07     0.08    25.08     0  03:54        0.08
  J19                  JUNCTION     0.14     0.17     8.17     0  02:35        0.17
  J9                   JUNCTION     0.13     0.16    29.16     0  03:42        0.16
  J14                  JUNCTION     0.14     0.18    20.18     0  06:29        0.18
  J17                  JUNCTION     0.10     0.13    20.13     0  03:23        0.13
  J7                   JUNCTION     0.09     0.20    39.20     0  03:01        0.20
  J11                  JUNCTION     0.10     0.27    31.27     0  03:01        0.27
  J18                  JUNCTION     0.06     0.15    29.15     0  03:01        0.15
  Out_to_WWTP          OUTFALL      0.14     0.17     6.17     0  02:34        0.17
  T5                   STORAGE      3.32     5.00    32.00     0  03:23        5.00
  T4                   STORAGE      1.41     2.86    29.86     0  03:36        2.86
  T6                   STORAGE      2.57     5.00    36.00     0  03:07        5.00
  T3                   STORAGE      2.89     4.35    26.35     0  05:42        4.35
  T2                   STORAGE      1.30     2.71    23.71     0  03:22        2.71
  T1                   STORAGE      3.73     5.00    15.00     0  02:33        5.00
  
  
  *******************
  Node Inflow Summary
  *******************
  
  -------------------------------------------------------------------------------------------------
                                  Maximum  Maximum                  Lateral       Total        Flow
                                  Lateral    Total  Time of Max      Inflow      Inflow     Balance
                                   Inflow   Inflow   Occurrence      Volume      Volume       Error
  Node                 Type           CMS      CMS  days hr:min    10^6 ltr    10^6 ltr     Percent
  -------------------------------------------------------------------------------------------------
  J1                   JUNCTION     0.240    0.240     0  03:01        1.66        1.66       0.023
  J3                   JUNCTION     0.000    0.273     0  03:59           0        5.52       0.825
  CSO7                 JUNCTION     0.073    0.073     0  03:01       0.619       0.619       0.072
  J5                   JUNCTION     0.094    0.164     0  03:01       0.605        1.22       0.097
  CSO9                 JUNCTION     0.100    0.100     0  03:01       0.677       0.677       0.072
  J8                   JUNCTION     0.442    0.539     0  03:01        3.18        3.85       0.101
  CSO8                 JUNCTION     0.391    0.391     0  03:01        2.25        2.25       0.023
  J10                  JUNCTION     0.275    0.657     0  03:01        1.65         3.9       0.111
  J13                  JUNCTION     0.336    0.336     0  03:01        2.06        2.06      -0.235
  J15                  JUNCTION     0.000    0.974     0  03:01           0        11.1       0.961
  J16                  JUNCTION     0.486    0.486     0  03:01        2.87        2.87      -0.019
  CSO10                JUNCTION     0.166    0.166     0  03:01       0.961       0.961       0.042
  J12                  JUNCTION     0.000    0.813     0  03:01           0        7.07       1.147
  J4                   JUNCTION     0.000    0.070     0  03:01           0       0.618       0.555
  J6                   JUNCTION     0.000    0.060     0  03:36           0        1.08       0.394
  J2                   JUNCTION     0.000    0.039     0  03:23           0       0.829       0.639
  J19                  JUNCTION     0.000    0.271     0  02:33           0        6.02       0.211
  J9                   JUNCTION     0.000    0.175     0  03:07           0         3.2       0.629
  J14                  JUNCTION     0.000    0.177     0  05:42           0        3.63       0.263
  J17                  JUNCTION     0.000    0.103     0  03:22           0        1.81       0.462
  J7                   JUNCTION     0.000    0.100     0  03:01           0       0.676       0.468
  J11                  JUNCTION     0.000    0.391     0  03:01           0        2.25       0.273
  J18                  JUNCTION     0.000    0.165     0  03:01           0       0.961       0.065
  Out_to_WWTP          OUTFALL      0.000    0.271     0  02:35           0           6       0.000
  T5                   STORAGE      0.000    0.238     0  03:01           0        1.66      31.958
  T4                   STORAGE      0.000    0.163     0  03:01           0        1.22       5.535
  T6                   STORAGE      0.000    0.532     0  03:01           0        3.84       7.265
  T3                   STORAGE      0.000    0.800     0  03:02           0        6.99      20.297
  T2                   STORAGE      0.000    0.334     0  03:01           0        2.07       5.964
  T1                   STORAGE      0.000    0.953     0  03:02           0          11       8.159
  
  
  **********************
  Node Surcharge Summary
  **********************
  
  Surcharging occurs when water rises above the top of the highest conduit.
  ---------------------------------------------------------------------
                                               Max. Height   Min. Depth
                                   Hours       Above Crown    Below Rim
  Node                 Type      Surcharged         Meters       Meters
  ---------------------------------------------------------------------
  CSO7                 JUNCTION        0.34          0.945        0.000
  CSO9                 JUNCTION        0.42          0.661        1.021
  CSO8                 JUNCTION        0.30          0.644        0.903
  J4                   JUNCTION        0.29          0.802        0.898
  
  
  *********************
  Node Flooding Summary
  *********************
  
  Flooding refers to all water that overflows a node, whether it ponds or not.
  --------------------------------------------------------------------------
                                                             Total   Maximum
                                 Maximum   Time of Max       Flood    Ponded
                        Hours       Rate    Occurrence      Volume     Depth
  Node                 Flooded       CMS   days hr:min    10^6 ltr    Meters
  --------------------------------------------------------------------------
  CSO7                    0.05     0.002      0  03:01       0.000     0.000
  T5                      0.51     0.037      0  03:23       0.025     0.000
  T6                      0.59     0.279      0  03:07       0.221     0.000
  T1                      5.27     0.682      0  03:02       3.459     0.000
  
  
  **********************
  Storage Volume Summary
  **********************
  
  --------------------------------------------------------------------------------------------------
                         Average     Avg  Evap Exfil       Maximum     Max    Time of Max    Maximum
                          Volume    Pcnt  Pcnt  Pcnt        Volume    Pcnt     Occurrence    Outflow
  Storage Unit           1000 m3    Full  Loss  Loss       1000 m3    Full    days hr:min        CMS
  --------------------------------------------------------------------------------------------------
  T5                       0.332      66     0     0         0.500     100       0  03:23      0.039
  T4                       0.141      28     0     0         0.286      57       0  03:36      0.060
  T6                       0.309      51     0     0         0.600     100       0  03:07      0.175
  T3                       1.501      58     0     0         2.263      87       0  05:42      0.177
  T2                       0.260      26     0     0         0.542      54       0  03:22      0.103
  T1                       0.522      75     0     0         0.700     100       0  02:33      0.271
  
  
  ***********************
  Outfall Loading Summary
  ***********************
  
  -----------------------------------------------------------
                         Flow       Avg       Max       Total
                         Freq      Flow      Flow      Volume
  Outfall Node           Pcnt       CMS       CMS    10^6 ltr
  -----------------------------------------------------------
  Out_to_WWTP           99.01     0.215     0.271       6.005
  -----------------------------------------------------------
  System                99.01     0.215     0.271       6.005
  
  
  ********************
  Link Flow Summary
  ********************
  
  -----------------------------------------------------------------------------
                                 Maximum  Time of Max   Maximum    Max/    Max/
                                  |Flow|   Occurrence   |Veloc|    Full    Full
  Link                 Type          CMS  days hr:min     m/sec    Flow   Depth
  -----------------------------------------------------------------------------
  C1                   CONDUIT     0.039     0  03:54      0.91    0.01    0.12
  C6                   CONDUIT     0.070     0  03:01      1.29    1.12    0.73
  C2                   CONDUIT     0.060     0  03:37      1.28    0.07    0.22
  C9                   CONDUIT     0.097     0  03:01      1.18    0.33    0.44
  C16                  CONDUIT     0.384     0  03:01      1.64    0.04    0.13
  C3                   CONDUIT     0.177     0  05:43      2.02    0.07    0.17
  C19                  CONDUIT     0.103     0  03:23      1.06    0.04    0.23
  C11                  CONDUIT     0.273     0  04:01      1.83    0.01    0.12
  C20                  CONDUIT     0.482     0  03:01      2.13    0.02    0.12
  C22                  CONDUIT     0.163     0  03:01      1.30    0.07    0.30
  C12                  CONDUIT     0.175     0  03:42      1.34    0.01    0.13
  C17                  CONDUIT     0.649     0  03:01      2.56    0.03    0.13
  C10                  CONDUIT     0.532     0  03:01      1.66    0.05    0.58
  C13                  CONDUIT     0.800     0  03:02      1.53    0.05    0.59
  C18                  CONDUIT     0.334     0  03:01      1.72    0.01    0.54
  C23                  CONDUIT     0.953     0  03:02      1.26    0.11    0.61
  C4                   CONDUIT     0.238     0  03:01      1.98    0.06    0.58
  C7                   CONDUIT     0.163     0  03:01      1.43    0.04    0.57
  C14                  CONDUIT     0.271     0  02:35      2.08    0.02    0.09
  C5                   CONDUIT     0.070     0  03:01      1.37    1.20    1.00
  C8                   CONDUIT     0.100     0  03:01      1.45    1.26    0.81
  C15                  CONDUIT     0.391     0  03:01      2.85    1.24    0.79
  C21                  CONDUIT     0.165     0  03:01      1.76    0.94    0.59
  V4                   ORIFICE     0.060     0  03:36                      1.00
  V5                   ORIFICE     0.039     0  03:23                      1.00
  V1                   ORIFICE     0.271     0  02:33                      1.00
  V6                   ORIFICE     0.175     0  03:07                      1.00
  V3                   ORIFICE     0.177     0  05:42                      1.00
  V2                   ORIFICE     0.103     0  03:22                      1.00
  
  
  ***************************
  Flow Classification Summary
  ***************************
  
  -------------------------------------------------------------------------------------
                      Adjusted    ---------- Fraction of Time in Flow Class ---------- 
                       /Actual         Up    Down  Sub   Sup   Up    Down  Norm  Inlet 
  Conduit               Length    Dry  Dry   Dry   Crit  Crit  Crit  Crit  Ltd   Ctrl  
  -------------------------------------------------------------------------------------
  C1                      1.00   0.00  0.00  0.00  0.92  0.08  0.00  0.00  0.95  0.00
  C6                      1.00   0.00  0.00  0.00  0.08  0.92  0.00  0.00  0.00  0.00
  C2                      1.00   0.00  0.00  0.00  0.08  0.92  0.00  0.00  0.94  0.00
  C9                      1.00   0.00  0.00  0.00  1.00  0.00  0.00  0.00  1.00  0.00
  C16                     1.00   0.00  0.00  0.00  0.56  0.44  0.00  0.00  0.45  0.00
  C3                      1.00   0.00  0.00  0.00  0.05  0.94  0.00  0.00  0.07  0.00
  C19                     1.00   0.00  0.00  0.00  1.00  0.00  0.00  0.00  1.00  0.00
  C11                     1.00   0.00  0.00  0.00  0.30  0.70  0.00  0.00  1.00  0.00
  C20                     1.00   0.00  0.00  0.00  0.63  0.37  0.00  0.00  0.98  0.00
  C22                     1.00   0.00  0.00  0.00  0.96  0.04  0.00  0.00  1.00  0.00
  C12                     1.00   0.00  0.00  0.00  0.85  0.15  0.00  0.00  1.00  0.00
  C17                     1.00   0.00  0.00  0.00  0.51  0.49  0.00  0.00  0.97  0.00
  C10                     1.00   0.00  0.00  0.00  0.94  0.06  0.00  0.00  0.97  0.00
  C13                     1.00   0.00  0.00  0.00  0.84  0.16  0.00  0.00  0.39  0.00
  C18                     1.00   0.00  0.00  0.00  0.82  0.18  0.00  0.00  0.97  0.00
  C23                     1.00   0.00  0.00  0.00  0.90  0.10  0.00  0.00  0.94  0.00
  C4                      1.00   0.00  0.00  0.00  0.96  0.04  0.00  0.00  0.98  0.00
  C7                      1.00   0.00  0.00  0.00  0.91  0.09  0.00  0.00  0.96  0.00
  C14                     1.00   0.00  0.00  0.00  0.00  0.99  0.00  0.00  0.00  0.00
  C5                      1.00   0.00  0.00  0.00  0.90  0.10  0.00  0.00  0.93  0.00
  C8                      1.00   0.00  0.00  0.00  0.12  0.88  0.00  0.00  0.00  0.00
  C15                     1.00   0.00  0.00  0.00  0.00  1.00  0.00  0.00  0.00  0.00
  C21                     1.00   0.00  0.00  0.00  0.00  1.00  0.00  0.00  0.00  0.00
  
  
  *************************
  Conduit Surcharge Summary
  *************************
  
  ----------------------------------------------------------------------------
                                                           Hours        Hours 
                         --------- Hours Full --------   Above Full   Capacity
  Conduit                Both Ends  Upstream  Dnstream   Normal Flow   Limited
  ----------------------------------------------------------------------------
  C6                          0.01      0.29      0.01      0.19         0.01
  C10                         0.01      0.01      5.49      0.01         0.01
  C13                         0.01      0.01      5.23      0.01         0.01
  C18                         0.01      0.01      1.99      0.01         0.01
  C23                         0.01      0.01      6.00      0.01         0.01
  C4                          0.01      0.01      6.02      0.01         0.01
  C7                          0.01      0.01      4.96      0.01         0.01
  C5                          0.34      0.34      0.51      0.48         0.31
  C8                          0.01      0.42      0.01      0.45         0.01
  C15                         0.01      0.30      0.01      0.45         0.01
  

  Analysis begun on:  Fri Sep  3 17:43:02 2021
  Analysis ended on:  Fri Sep  3 17:43:02 2021
  Total elapsed time: < 1 sec