
  EPA STORM WATER MANAGEMENT MODEL - VERSION 5.1 (Build 5.3.0.dev0)
  --------------------------------------------------------------

  WARNING 04: minimum elevation drop used for Conduit WS02004404WS02004405
  WARNING 03: negative offset ignored for Link YS02001904YS02001907
  
  *********************************************************
  NOTE: The summary statistics displayed in this report are
  based on results found at every computational time step,  
  not just on results from each reporting time step.
  *********************************************************
  
  ****************
  Analysis Options
  ****************
  Flow Units ............... LPS
  Process Models:
    Rainfall/Runoff ........ YES
    RDII ................... NO
    Snowmelt ............... NO
    Groundwater ............ NO
    Flow Routing ........... YES
    Ponding Allowed ........ NO
    Water Quality .......... YES
  Infiltration Method ...... HORTON
  Flow Routing Method ...... DYNWAVE
  Surcharge Method ......... EXTRAN
  Starting Date ............ 08/28/2015 08:00:00
  Ending Date .............. 08/28/2015 15:50:00
  Antecedent Dry Days ...... 8.0
  Report Time Step ......... 00:01:00
  Wet Time Step ............ 00:01:00
  Dry Time Step ............ 00:01:00
  Routing Time Step ........ 5.00 sec
  Variable Time Step ....... YES
  Maximum Trials ........... 8
  Number of Threads ........ 4
  Head Tolerance ........... 0.001500 m
  
  
  **************************        Volume         Depth
  Runoff Quantity Continuity     hectare-m            mm
  **************************     ---------       -------
  Total Precipitation ......         5.556        12.164
  Evaporation Loss .........         0.000         0.000
  Infiltration Loss ........         1.002         2.194
  Surface Runoff ...........         3.688         8.075
  Final Storage ............         0.866         1.897
  Continuity Error (%) .....        -0.019
  
  
  **************************           COD            SS            TN            TP         NH4-N
  Runoff Quality Continuity             kg            kg            kg            kg            kg
  **************************    ----------    ----------    ----------    ----------    ----------
  Initial Buildup ..........     41378.656     70582.865      1804.177       168.684      1032.807
  Surface Buildup ..........        19.275        34.271         2.335         0.213         1.362
  Wet Deposition ...........         0.000         0.000         0.000         0.000         0.000
  Sweeping Removal .........         0.000         0.000         0.000         0.000         0.000
  Infiltration Loss ........        84.023       157.502         1.599         0.111         0.761
  BMP Removal ..............         0.000         0.000         0.000         0.000         0.000
  Surface Runoff ...........      3122.074      5752.154        60.620         4.098        28.771
  Remaining Buildup ........     38190.779     64705.500      1744.271       164.686      1004.628
  Continuity Error (%) .....         0.003         0.003         0.001         0.001         0.001
  
  
  **************************        Volume        Volume
  Flow Routing Continuity        hectare-m      10^6 ltr
  **************************     ---------     ---------
  Dry Weather Inflow .......         0.616         6.165
  Wet Weather Inflow .......         3.687        36.875
  Groundwater Inflow .......         0.000         0.000
  RDII Inflow ..............         0.000         0.000
  External Inflow ..........         0.102         1.024
  External Outflow .........         1.491        14.912
  Flooding Loss ............         2.339        23.387
  Evaporation Loss .........         0.000         0.000
  Exfiltration Loss ........         0.000         0.000
  Initial Stored Volume ....         0.076         0.761
  Final Stored Volume ......         0.657         6.571
  Continuity Error (%) .....        -0.105
  
  
  **************************           COD            SS            TN            TP         NH4-N
  Quality Routing Continuity            kg            kg            kg            kg            kg
  **************************    ----------    ----------    ----------    ----------    ----------
  Dry Weather Inflow .......      1541.201      2465.922       147.955        18.494        92.472
  Wet Weather Inflow .......      3121.712      5751.613        60.611         4.098        28.767
  Groundwater Inflow .......         0.000         0.000         0.000         0.000         0.000
  RDII Inflow ..............         0.000         0.000         0.000         0.000         0.000
  External Inflow ..........       183.418       293.469        17.608         2.201        11.005
  External Outflow .........      1881.541      3216.407       121.005        14.248        73.272
  Flooding Loss ............      2320.048      4183.596        76.509         7.470        42.362
  Exfiltration Loss ........         0.000         0.000         0.000         0.000         0.000
  Mass Reacted .............         0.000         0.000         0.000         0.000         0.000
  Initial Stored Mass ......         0.000         0.000         0.000         0.000         0.000
  Final Stored Mass ........       634.012      1093.329        28.640         3.091        16.647
  Continuity Error (%) .....         0.221         0.208         0.009        -0.063        -0.028
  
  
  *************************
  Highest Continuity Errors
  *************************
  Node HS02004842 (14.53%)
  Node YS02001884 (10.73%)
  Node YSB1171 (2.74%)
  Node HS02004817 (2.73%)
  Node HS02004901 (1.95%)
  
  
  ***************************
  Time-Step Critical Elements
  ***************************
  Link WS02006238WS02006235 (24.65%)
  Link WS02006280WS02006229 (19.41%)
  Link YS02006556YS02006558 (16.96%)
  Link WS02003066WSF200 (8.00%)
  Link WS02004404WS02004405 (6.64%)
  
  
  ********************************
  Highest Flow Instability Indexes
  ********************************
  Link WS02006113WS02006111 (66)
  Link YS02163601YS02164001 (37)
  Link YS02001619YS02001622 (36)
  Link YS02163301YS02001633 (35)
  Link YS02001629YS02163301 (35)
  
  
  *************************
  Routing Time Step Summary
  *************************
  Minimum Time Step           :     0.50 sec
  Average Time Step           :     2.39 sec
  Maximum Time Step           :     5.00 sec
  Percent in Steady State     :     0.00
  Average Iterations per Step :     4.32
  Percent Not Converging      :    22.14
  
  
  ***************************
  Subcatchment Runoff Summary
  ***************************
  
  ------------------------------------------------------------------------------------------------------------------------------
                            Total      Total      Total      Total     Imperv       Perv      Total       Total     Peak  Runoff
                           Precip      Runon       Evap      Infil     Runoff     Runoff     Runoff      Runoff   Runoff   Coeff
  Subcatchment                 mm         mm         mm         mm         mm         mm         mm    10^6 ltr      LPS
  ------------------------------------------------------------------------------------------------------------------------------
  sub0                      12.16       0.00       0.00       0.65      11.27       0.20      11.47        0.01     1.99   0.943
  sub1                      12.16       0.00       0.00       1.12      10.73       0.22      10.95        0.07    14.96   0.900
  sub2                      12.16       0.00       0.00       4.23       7.58       0.27       7.85        0.07    15.08   0.646
  sub3                      12.16       0.00       0.00       4.29       7.54       0.21       7.75        0.17    34.61   0.637
  sub4                      12.16       0.00       0.00       1.19      10.57       0.14      10.71        0.22    42.34   0.881
  sub5                      12.16       0.00       0.00       0.69      11.21       0.16      11.38        0.13    26.18   0.935
  sub7                      12.16       0.00       0.00       0.88      11.01       0.22      11.22        0.04     7.95   0.923
  sub8                      12.16       0.00       0.00       0.89      11.00       0.21      11.20        0.07    14.89   0.921
  sub9                      12.16       0.00       0.00       0.89      10.99       0.21      11.20        0.05    11.18   0.921
  sub10                     12.16       0.00       0.00       0.79      11.10       0.18      11.28        0.12    25.49   0.928
  sub11                     12.16       0.00       0.00       0.78      11.12       0.19      11.31        0.13    27.35   0.930
  sub12                     12.16       0.00       0.00       1.27      10.53       0.31      10.85        0.09    20.52   0.892
  sub14                     12.16       0.00       0.00       0.89      10.99       0.20      11.20        0.11    22.08   0.920
  sub15                     12.16       0.00       0.00       3.28       8.45       0.37       8.82        0.15    32.49   0.725
  sub16                     12.16       0.00       0.00       3.51       8.11       0.50       8.61        0.09    20.36   0.708
  sub17                     12.16       0.00       0.00       3.41       8.23       0.48       8.71        0.07    16.72   0.716
  sub22                     12.16       0.00       0.00       4.80       6.89       0.43       7.32        0.46   102.62   0.602
  sub23                     12.16       0.00       0.00       4.05       7.62       0.45       8.07        0.38    85.35   0.663
  sub60                     12.16       0.00       0.00       1.42       8.82       0.04       8.86        2.69   336.84   0.729
  sub61                     12.16       0.00       0.00       2.01       8.94       0.06       9.00        2.78   399.45   0.740
  sub62                     12.16       0.00       0.00       0.92       9.73       0.05       9.78        3.01   415.79   0.804
  sub63                     12.16       0.00       0.00       3.46       7.82       0.06       7.88        2.39   361.21   0.648
  sub64                     12.16       0.00       0.00       1.78       8.47       0.04       8.51        2.59   320.97   0.699
  sub65                     12.16       0.00       0.00       1.54       8.61       0.04       8.65        2.66   326.54   0.711
  sub66                     12.16       0.00       0.00       3.49       7.26       0.04       7.30        2.24   290.53   0.600
  sub67                     12.16       0.00       0.00       0.91      10.24       0.07      10.31        3.18   494.23   0.848
  sub68                     12.16       0.00       0.00       1.64       9.40       0.06       9.46        2.91   432.52   0.778
  sub69                     12.16       0.00       0.00       1.73       9.72       0.09       9.82        2.29   383.95   0.807
  sub70                     12.16      10.02       0.00       6.98      13.09       0.56      13.65        3.12   394.93   0.615
  sub71                     12.16       0.00       0.00       0.93       9.48       0.05       9.53        2.25   296.34   0.783
  sub72                     12.16       0.00       0.00       0.83       7.62       0.02       7.64        1.56   151.13   0.628
  1                         12.16      13.29       0.00       1.37      14.64       3.94      18.57        4.36   399.24   0.730
  2                         12.16       0.00       0.00       3.02       2.89       1.65       4.55        1.82   245.52   0.374
  
  
  ****************************
  Subcatchment Washoff Summary
  ****************************
  
  ------------------------------------------------------------------------------------------
                                 COD            SS            TN            TP         NH4-N
  Subcatchment                    kg            kg            kg            kg            kg
  ------------------------------------------------------------------------------------------
  sub0                         2.176         4.147         0.037         0.003         0.018
  sub1                         9.268        18.138         0.173         0.012         0.083
  sub2                         5.563        10.570         0.119         0.008         0.054
  sub3                        13.747        25.918         0.288         0.019         0.132
  sub4                        21.530        42.606         0.429         0.026         0.205
  sub5                        21.300        41.103         0.378         0.029         0.183
  sub7                         4.748         9.424         0.090         0.006         0.043
  sub8                         7.142        14.500         0.143         0.008         0.069
  sub9                         6.100        12.212         0.118         0.007         0.057
  sub10                       17.532        34.266         0.321         0.023         0.155
  sub11                       17.086        33.770         0.320         0.022         0.154
  sub12                       14.392        27.890         0.260         0.019         0.125
  sub14                       13.021        25.823         0.247         0.016         0.119
  sub15                       16.182        30.744         0.313         0.023         0.146
  sub16                       10.318        19.555         0.197         0.015         0.092
  sub17                        9.471        17.789         0.175         0.014         0.082
  sub22                       48.821        90.813         0.932         0.070         0.434
  sub23                       29.138        56.181         0.627         0.041         0.287
  sub60                      203.703       376.194         4.083         0.248         1.956
  sub61                      251.300       461.579         4.699         0.320         2.261
  sub62                      262.762       491.326         5.157         0.324         2.474
  sub63                      185.047       334.594         3.739         0.261         1.731
  sub64                      253.867       452.095         4.687         0.339         2.235
  sub65                      260.106       465.192         4.834         0.344         2.309
  sub66                      146.558       263.078         3.037         0.197         1.417
  sub67                      388.205       718.566         6.963         0.510         3.363
  sub68                      276.714       513.393         5.318         0.356         2.539
  sub69                      247.676       464.012         4.658         0.325         2.225
  sub70                      413.256       778.342         8.287         0.572         3.877
  sub71                      173.740       327.842         3.597         0.206         1.720
  sub72                      136.329       239.316         2.558         0.174         1.230
  1                          280.724       531.718         5.751         0.398         2.660
  2                           35.485        61.812         1.030         0.062         0.437
  ------------------------------------------------------------------------------------------
  System                    3783.006      6994.507        73.566         4.996        34.873
  
  
  ******************
  Node Depth Summary
  ******************
  
  ---------------------------------------------------------------------------------
                                 Average  Maximum  Maximum  Time of Max    Reported
                                   Depth    Depth      HGL   Occurrence   Max Depth
  Node                 Type       Meters   Meters   Meters  days hr:min      Meters
  ---------------------------------------------------------------------------------
  WS02001211           JUNCTION     0.69     0.75     5.58     0  03:09        0.75
  WS02001212           JUNCTION     0.41     0.48     5.54     0  03:08        0.48
  WS02001213           JUNCTION     0.64     0.75     5.51     0  03:07        0.75
  WS02003069           JUNCTION     0.45     0.61     5.20     0  03:07        0.61
  WS02003072           JUNCTION     0.51     0.67     5.04     0  03:08        0.67
  WS02003073           JUNCTION     0.31     0.41     4.48     0  03:08        0.41
  WS02003060           JUNCTION     0.40     0.54     5.47     0  03:06        0.54
  WS02003066           JUNCTION     0.22     0.34     5.89     0  03:05        0.34
  WS02003059           JUNCTION     0.70     0.81     5.50     0  03:07        0.81
  WS02003067           JUNCTION     0.53     0.76     6.08     0  03:05        0.76
  WS02004401           JUNCTION     0.65     1.03     7.03     0  03:03        1.03
  WS02004402           JUNCTION     0.68     1.04     7.00     0  03:03        1.04
  WS02004403           JUNCTION     0.70     1.04     6.97     0  03:03        1.04
  WS02004404           JUNCTION     0.77     1.10     6.95     0  02:19        1.10
  WS02004406           JUNCTION     0.77     1.06     6.89     0  03:03        1.06
  WS02004409           JUNCTION     0.47     0.79     6.56     0  03:04        0.79
  WS02004410           JUNCTION     0.49     0.80     6.52     0  03:05        0.80
  WS02004411           JUNCTION     0.50     0.80     6.48     0  03:05        0.80
  WS02004412           JUNCTION     0.51     0.79     6.43     0  03:05        0.79
  WS02004413           JUNCTION     0.65     0.94     6.41     0  03:05        0.94
  WS02004405           JUNCTION     0.76     1.08     6.93     0  03:03        1.08
  WS02006109           JUNCTION     0.75     1.15     7.77     0  03:03        1.14
  WS02006110           JUNCTION     0.74     1.03     7.61     0  03:02        1.03
  WS02006111           JUNCTION     0.22     0.45     7.16     0  03:03        0.45
  WS02006112           JUNCTION     0.83     1.27     7.15     0  03:03        1.26
  WS02006113           JUNCTION     0.33     0.53     7.42     0  02:58        0.52
  WS02006115           JUNCTION     0.56     0.96     7.10     0  03:03        0.96
  WS02006116           JUNCTION     0.63     1.03     7.07     0  03:03        1.03
  WS02006230           JUNCTION     0.72     1.25     8.00     0  03:02        1.25
  WS02006231           JUNCTION     0.46     0.92     8.04     0  03:02        0.91
  WS02006232           JUNCTION     0.57     1.04     8.07     0  03:02        1.03
  WS02006234           JUNCTION     0.49     0.95     8.11     0  03:02        0.95
  WS02006235           JUNCTION     0.51     0.98     8.14     0  03:03        0.97
  WS02006238           JUNCTION     0.53     1.00     8.14     0  03:04        0.99
  WS02006240           JUNCTION     0.40     0.85     8.14     0  03:02        0.85
  WS02006242           JUNCTION     0.43     0.88     8.14     0  03:02        0.87
  WS02006243           JUNCTION     0.30     0.73     8.15     0  03:03        0.72
  WS02006245           JUNCTION     0.25     0.66     8.15     0  03:03        0.66
  WS02006247           JUNCTION     0.25     0.65     8.15     0  03:04        0.65
  WS02006248           JUNCTION     0.18     0.57     8.15     0  03:03        0.57
  WS02006249           JUNCTION     0.18     0.56     8.16     0  03:03        0.56
  WS02006239           JUNCTION     0.48     0.93     8.14     0  03:03        0.93
  WS02006251           JUNCTION     0.14     0.49     8.16     0  03:04        0.49
  WS02006252           JUNCTION     0.00     0.00     8.24     0  00:00        0.00
  WS02006253           JUNCTION     0.18     0.52     8.16     0  03:04        0.52
  WS02006256           JUNCTION     1.86     2.35     9.28     0  01:44        2.35
  WS02004138           JUNCTION     0.16     0.17     7.42     0  04:55        0.17
  WS02004139           JUNCTION     0.63     0.69     5.60     0  03:09        0.69
  WS02004407           JUNCTION     0.21     0.34     6.66     0  03:04        0.34
  WS02006228           JUNCTION     0.76     1.24     7.89     0  03:03        1.23
  WS02006229           JUNCTION     0.74     1.26     7.95     0  03:02        1.26
  WS02006280           JUNCTION     0.09     0.20     8.47     0  03:02        0.20
  WS02006284           JUNCTION     0.40     0.56     8.96     0  03:02        0.56
  WS02006287           JUNCTION     0.13     0.30     9.25     0  03:01        0.30
  WSF200               JUNCTION     0.21     0.37     5.60     0  03:05        0.37
  HS02004901           JUNCTION     0.15     0.29    10.12     0  03:01        0.29
  HS02004881           JUNCTION     0.01     0.04     9.07     0  03:01        0.04
  HS02004876           JUNCTION     0.06     0.12     9.15     0  03:01        0.12
  HS02004870           JUNCTION     0.02     0.07     9.35     0  03:01        0.07
  HS02004862           JUNCTION     0.03     0.08     9.46     0  03:01        0.08
  HS02004856           JUNCTION     0.09     0.13     9.55     0  03:01        0.13
  HS02004852           JUNCTION     0.02     0.05     9.56     0  03:01        0.05
  HS02004848           JUNCTION     0.02     0.05     9.65     0  03:01        0.05
  HS02004842           JUNCTION     0.34     0.38     9.65     0  03:01        0.38
  HS02004837           JUNCTION     0.04     0.07     9.65     0  03:01        0.07
  HS02004830           JUNCTION     0.05     0.08     9.55     0  03:01        0.08
  HS02004824           JUNCTION     0.03     0.06     9.47     0  03:01        0.06
  HS02004817           JUNCTION     0.46     0.61     9.45     0  03:01        0.61
  HS02004807           JUNCTION     0.15     0.28     9.45     0  03:01        0.28
  HS02004802           JUNCTION     0.18     0.31     9.44     0  03:01        0.31
  HS02004799           JUNCTION     0.16     0.35     9.56     0  03:01        0.35
  HS02004792           JUNCTION     0.05     0.15     9.67     0  03:01        0.15
  HS02004788           JUNCTION     0.04     0.11    10.01     0  03:01        0.11
  HS02004785           JUNCTION     0.07     0.18    10.09     0  03:01        0.18
  HS02004777           JUNCTION     0.18     0.31    10.11     0  03:01        0.31
  HS02004770           JUNCTION     0.15     0.29    10.12     0  03:01        0.29
  HS02004480           JUNCTION     0.12     0.28     9.52     0  03:01        0.28
  HS02004479           JUNCTION     0.15     0.32     9.52     0  03:01        0.32
  HS02004478           JUNCTION     0.08     0.20     9.42     0  03:01        0.20
  YS02001745           JUNCTION     0.65     0.93     8.45     0  03:08        0.93
  YS02001748           JUNCTION     1.01     1.45     8.53     0  02:28        1.37
  YS02001751           JUNCTION     1.18     1.66     8.54     0  02:18        1.56
  YS02001754           JUNCTION     1.42     1.83     8.44     0  02:57        1.83
  YS02001762           JUNCTION     1.62     2.04     8.44     0  02:57        2.03
  YS02001765           JUNCTION     1.57     1.98     8.43     0  02:57        1.97
  YS02001767           JUNCTION     1.53     1.94     8.43     0  02:57        1.93
  YS02001770           JUNCTION     1.53     1.92     8.42     0  02:57        1.92
  YS02001774           JUNCTION     1.59     1.98     8.40     0  02:59        1.97
  YS02001779           JUNCTION     1.35     1.68     8.37     0  02:18        1.68
  YS02001882           JUNCTION     0.62     1.62     8.34     0  03:00        1.61
  YS02001884           JUNCTION     0.71     1.72     8.34     0  02:59        1.71
  YS02001759           JUNCTION     1.65     2.08     8.44     0  02:57        2.07
  YS02001887           JUNCTION     0.79     1.80     8.34     0  03:00        1.79
  YS02001890           JUNCTION     0.82     1.81     8.32     0  02:54        1.81
  YS02001898           JUNCTION     0.59     1.56     8.29     0  02:57        1.55
  YS02001901           JUNCTION     0.70     1.67     8.28     0  02:54        1.67
  YS02001904           JUNCTION     0.68     1.63     8.26     0  03:01        1.63
  YS02001907           JUNCTION     1.00     1.96     8.25     0  02:53        1.96
  YS02001910           JUNCTION     0.79     1.78     8.28     0  02:55        1.76
  YS02001915           JUNCTION     0.60     1.59     8.30     0  02:55        1.57
  YS02001918           JUNCTION     0.34     1.25     8.32     0  02:55        1.24
  YS02001619           JUNCTION     1.15     1.61     8.54     0  02:27        1.47
  YS02001629           JUNCTION     1.48     1.85     8.40     0  02:27        1.84
  YS02001641           JUNCTION     1.57     1.94     8.38     0  03:50        1.93
  YS02001644           JUNCTION     1.58     1.92     8.35     0  02:34        1.92
  YS02001652           JUNCTION     1.43     2.10     8.69     0  02:38        1.96
  YS02001655           JUNCTION     1.21     2.01     8.86     0  02:38        1.81
  YS02001920           JUNCTION     0.42     1.32     8.33     0  02:55        1.31
  YS02001923           JUNCTION     0.25     1.08     8.34     0  02:55        1.06
  YS02001926           JUNCTION     0.29     0.90     8.34     0  02:55        0.90
  YS02001929           JUNCTION     0.17     0.65     8.34     0  02:54        0.64
  YS02001658           JUNCTION     0.96     1.93     9.08     0  02:37        1.51
  YS02001661           JUNCTION     0.75     2.43     9.84     0  02:38        1.32
  YS02001664           JUNCTION     0.34     0.57     8.50     0  02:39        0.57
  YS02001622           JUNCTION     1.17     1.60     8.51     0  02:27        1.49
  YS02001633           JUNCTION     1.57     1.95     8.40     0  02:35        1.94
  YS02001649           JUNCTION     1.62     2.05     8.44     0  02:37        2.05
  YS02001757           JUNCTION     1.74     2.17     8.43     0  02:57        2.17
  YS02001895           JUNCTION     0.58     1.56     8.31     0  02:58        1.55
  YS02001625           JUNCTION     1.44     1.78     8.38     0  02:27        1.78
  YS02163301           JUNCTION     1.51     1.89     8.40     0  02:27        1.88
  YS02163601           JUNCTION     1.62     1.99     8.39     0  02:35        1.98
  YS02164001           JUNCTION     1.56     1.92     8.38     0  02:36        1.91
  YS02001647           JUNCTION     1.41     1.80     8.41     0  02:42        1.79
  YSB1154              JUNCTION     0.29     0.47     9.52     0  03:01        0.47
  YSB6556              JUNCTION     0.19     0.35     9.52     0  03:01        0.35
  YSB1174              JUNCTION     0.24     0.41     9.52     0  03:01        0.41
  YSB1171              JUNCTION     0.44     0.62     9.52     0  03:01        0.62
  YS02006553           JUNCTION     1.00     1.96     8.25     0  02:55        1.96
  YS02006561           JUNCTION     0.34     1.05     7.71     0  03:13        1.05
  YS02006556           JUNCTION     0.97     1.94     8.25     0  02:55        1.91
  YS02006558           JUNCTION     1.01     1.98     8.25     0  02:55        1.95
  YS02001783           JUNCTION     0.55     1.43     7.58     0  03:04        1.43
  YS02001784           JUNCTION     0.56     1.37     7.44     0  03:03        1.37
  YS02001786           JUNCTION     0.47     1.21     7.24     0  03:13        1.21
  YS02001788           JUNCTION     0.38     1.08     7.05     0  03:04        1.07
  YS02001790           JUNCTION     0.45     1.23     6.88     0  03:13        1.23
  YS02001791           JUNCTION     0.34     1.21     6.68     0  03:12        1.21
  YS02001793           JUNCTION     0.59     2.57     7.40     0  02:14        1.72
  WSC                  OUTFALL      0.31     0.41     1.08     0  03:08        0.41
  JK-storage           STORAGE      4.45     5.73     6.53     0  03:10        5.73
  CC-storage           STORAGE      0.99     1.44     8.44     0  03:07        1.44
  XR-storage           STORAGE      7.53     7.72     5.72     0  02:04        7.72
  
  
  *******************
  Node Inflow Summary
  *******************
  
  -------------------------------------------------------------------------------------------------
                                  Maximum  Maximum                  Lateral       Total        Flow
                                  Lateral    Total  Time of Max      Inflow      Inflow     Balance
                                   Inflow   Inflow   Occurrence      Volume      Volume       Error
  Node                 Type           LPS      LPS  days hr:min    10^6 ltr    10^6 ltr     Percent
  -------------------------------------------------------------------------------------------------
  WS02001211           JUNCTION      7.35   294.83     0  03:18       0.207        7.55       0.505
  WS02001212           JUNCTION      0.00   297.38     0  03:18           0        7.51       0.258
  WS02001213           JUNCTION      0.00   299.37     0  03:18           0        7.49       0.294
  WS02003069           JUNCTION      0.32  1022.86     0  03:07     0.00902        14.9       0.162
  WS02003072           JUNCTION      0.00  1022.81     0  03:07           0        14.9       0.205
  WS02003073           JUNCTION      1.82  1024.62     0  03:08      0.0514        14.9       0.224
  WS02003060           JUNCTION     16.53  1022.35     0  03:06       0.466          15       0.155
  WS02003066           JUNCTION      0.00   718.07     0  03:05           0        7.07       0.043
  WS02003059           JUNCTION      0.00   302.46     0  03:17           0        7.47       0.515
  WS02003067           JUNCTION      0.00   717.91     0  03:05           0        7.08       0.095
  WS02004401           JUNCTION      0.00   719.14     0  03:03           0        7.25       0.213
  WS02004402           JUNCTION      0.00   719.21     0  03:04           0        7.23       0.208
  WS02004403           JUNCTION      0.00   719.31     0  03:04           0        7.22       0.196
  WS02004404           JUNCTION      0.16   719.55     0  03:04     0.00457        7.21       0.142
  WS02004406           JUNCTION      0.00   719.66     0  03:04           0        7.18       0.372
  WS02004409           JUNCTION      0.00   719.56     0  03:04           0        7.15       0.130
  WS02004410           JUNCTION      0.00   718.81     0  03:04           0        7.14       0.160
  WS02004411           JUNCTION      0.00   718.33     0  03:05           0        7.13       0.173
  WS02004412           JUNCTION      0.00   718.08     0  03:05           0        7.12       0.198
  WS02004413           JUNCTION      0.00   717.92     0  03:05           0         7.1       0.316
  WS02004405           JUNCTION      0.04   719.62     0  03:04     0.00107         7.2       0.223
  WS02006109           JUNCTION      1.23   708.31     0  03:02      0.0347        7.25       0.175
  WS02006110           JUNCTION      0.00   708.44     0  03:02           0        7.24       0.180
  WS02006111           JUNCTION      0.00   720.39     0  02:59           0        7.22       0.023
  WS02006112           JUNCTION     16.72   719.89     0  03:03      0.0747        7.29       0.271
  WS02006113           JUNCTION      0.00   708.27     0  03:02           0        7.22       0.064
  WS02006115           JUNCTION      0.00   719.99     0  03:03           0        7.27       0.197
  WS02006116           JUNCTION      0.00   719.43     0  03:03           0        7.26       0.155
  WS02006230           JUNCTION     10.28   340.75     0  03:15        0.29        5.07       0.168
  WS02006231           JUNCTION      0.00   328.05     0  03:13           0        4.78      -0.011
  WS02006232           JUNCTION      0.00   327.97     0  03:13           0        4.79       0.114
  WS02006234           JUNCTION      0.00   327.56     0  03:13           0        4.78       0.002
  WS02006235           JUNCTION      0.00   328.65     0  03:13           0        5.01       0.036
  WS02006238           JUNCTION      0.00   207.16     0  01:44           0       0.823       0.143
  WS02006240           JUNCTION      0.00   110.69     0  01:46           0       0.659       0.234
  WS02006242           JUNCTION      0.00   101.37     0  03:09           0        0.57       0.337
  WS02006243           JUNCTION      0.00    96.21     0  03:09           0       0.499       0.651
  WS02006245           JUNCTION      0.00    89.94     0  03:09           0        0.46       0.586
  WS02006247           JUNCTION      0.00    85.11     0  03:06           0       0.438       0.087
  WS02006248           JUNCTION      0.00    81.44     0  03:06           0       0.426      -0.003
  WS02006249           JUNCTION      0.00    80.32     0  03:01           0       0.423       0.185
  WS02006239           JUNCTION      0.00   134.09     0  01:45           0       0.748       0.059
  WS02006251           JUNCTION      0.08    83.67     0  03:01     0.00217       0.422      -0.011
  WS02006252           JUNCTION      0.00     0.00     0  00:00           0           0       0.000 ltr
  WS02006253           JUNCTION      1.99    86.08     0  03:01     0.00928        0.42       0.021
  WS02006256           JUNCTION      0.00   983.00     0  02:05           0        9.55      -0.083
  WS02004138           JUNCTION      0.00   285.00     0  01:31           0        7.37       0.053
  WS02004139           JUNCTION      0.32   285.32     0  03:50     0.00905        7.38       0.489
  WS02004407           JUNCTION      0.00   719.71     0  03:04           0        7.15       0.060
  WS02006228           JUNCTION      0.00   707.15     0  03:02           0        7.22       0.130
  WS02006229           JUNCTION      0.00   706.89     0  03:02           0        7.23       0.121
  WS02006280           JUNCTION      0.00   413.61     0  03:02           0        2.17       0.003
  WS02006284           JUNCTION      0.10   413.56     0  03:02      0.0027        2.17       0.039
  WS02006287           JUNCTION      0.00   413.22     0  03:01           0        2.17       0.034
  WSF200               JUNCTION      0.00   718.13     0  03:06           0        7.07       0.036
  HS02004901           JUNCTION     20.36    20.36     0  03:01      0.0902      0.0904       1.992
  HS02004881           JUNCTION      7.95    84.19     0  03:01      0.0378        0.41       0.044
  HS02004876           JUNCTION     14.96    76.75     0  03:01      0.0728       0.373       0.147
  HS02004870           JUNCTION     14.89    62.15     0  03:01      0.0716         0.3       0.038
  HS02004862           JUNCTION     15.28    47.68     0  03:01      0.0788       0.229       0.077
  HS02004856           JUNCTION     11.18    32.72     0  03:01      0.0539       0.152       0.966
  HS02004852           JUNCTION      0.00    21.94     0  03:01           0      0.0979       0.060
  HS02004848           JUNCTION     34.61    34.61     0  03:01       0.174       0.174       0.030
  HS02004842           JUNCTION      0.00    12.41     0  03:01           0      0.0895      16.997
  HS02004837           JUNCTION     31.84    43.95     0  03:01       0.303        0.38       0.208
  HS02004830           JUNCTION      0.15    43.86     0  03:01     0.00423        0.37       0.334
  HS02004824           JUNCTION     42.39    85.90     0  03:01       0.225       0.594       0.092
  HS02004817           JUNCTION      0.60    86.28     0  03:01      0.0169        0.61       2.808
  HS02004807           JUNCTION     27.35   112.31     0  03:01       0.131       0.726       0.605
  HS02004802           JUNCTION      0.00   111.36     0  03:01           0       0.723       0.547
  HS02004799           JUNCTION     22.08   258.93     0  03:01       0.107        1.24       0.223
  HS02004792           JUNCTION    102.90   237.97     0  03:01        0.47        1.14       0.037
  HS02004788           JUNCTION     34.16   135.93     0  03:01       0.199       0.669       0.058
  HS02004785           JUNCTION      0.15   103.52     0  03:01     0.00423       0.471       0.107
  HS02004777           JUNCTION      0.03   104.16     0  03:01    0.000846       0.472       1.115
  HS02004770           JUNCTION     85.35   105.10     0  03:01       0.385       0.473       0.660
  HS02004480           JUNCTION      0.00   302.44     0  03:01           0        1.46       0.075
  HS02004479           JUNCTION      0.00    44.90     0  03:02           0       0.232       0.318
  HS02004478           JUNCTION      0.00   413.08     0  03:01           0        2.17       0.014
  YS02001745           JUNCTION    336.84   379.94     0  02:26        2.69         2.7       0.424
  YS02001748           JUNCTION      0.04   551.91     0  02:27     0.00127        2.69       0.805
  YS02001751           JUNCTION      0.01   380.80     0  02:17     0.00031        2.65       0.904
  YS02001754           JUNCTION      0.26   341.72     0  03:01     0.00733        2.64       0.947
  YS02001762           JUNCTION      0.00   292.93     0  02:38           0        1.96       1.094
  YS02001765           JUNCTION      0.00   294.04     0  02:38           0        1.97       1.257
  YS02001767           JUNCTION      0.54   293.76     0  02:38      0.0151        1.99       1.823
  YS02001770           JUNCTION    415.94   621.34     0  03:08        3.01        3.76       0.852
  YS02001774           JUNCTION      0.00   621.80     0  03:08           0         2.5       1.010
  YS02001779           JUNCTION      0.01   622.03     0  03:08    0.000141        2.47       0.622
  YS02001882           JUNCTION      0.00    13.11     0  02:41           0      0.0168      13.074
  YS02001884           JUNCTION      0.00    17.20     0  02:30           0      0.0534      12.019
  YS02001759           JUNCTION    399.49   574.05     0  02:38        2.78        3.96       0.583
  YS02001887           JUNCTION    494.68   494.77     0  03:00        3.19        3.23       0.246
  YS02001890           JUNCTION      0.00   494.93     0  03:00           0        3.18       0.274
  YS02001898           JUNCTION      0.00   494.97     0  03:01           0        3.17       0.083
  YS02001901           JUNCTION      0.00   495.70     0  03:01           0        3.16       0.201
  YS02001904           JUNCTION      0.00   495.71     0  03:01           0        3.16       0.175
  YS02001907           JUNCTION      0.00   962.94     0  03:00           0        7.02       0.329
  YS02001910           JUNCTION      0.00   480.43     0  02:56           0        3.88       0.292
  YS02001915           JUNCTION    296.36   480.03     0  02:56        2.25        3.88       0.143
  YS02001918           JUNCTION      0.00   219.03     0  03:31           0        1.63       0.072
  YS02001619           JUNCTION    290.53   290.53     0  03:01        2.24        2.24       0.549
  YS02001629           JUNCTION      0.00   216.12     0  02:17           0        1.69       1.718
  YS02001641           JUNCTION      0.00   402.49     0  02:28           0        4.25       0.506
  YS02001644           JUNCTION    321.01  1397.70     0  03:01        2.59        12.1       0.213
  YS02001652           JUNCTION      0.00   370.39     0  03:01           0        2.33       1.030
  YS02001655           JUNCTION      0.15   391.24     0  02:19     0.00434        2.36       1.036
  YS02001920           JUNCTION      2.87   206.92     0  02:55      0.0809        1.63       0.157
  YS02001923           JUNCTION      0.04   203.58     0  02:55     0.00106        1.55       0.049
  YS02001926           JUNCTION      0.05   176.89     0  02:56     0.00147        1.56       0.220
  YS02001929           JUNCTION    151.13   151.13     0  03:01        1.56        1.56       0.040
  YS02001658           JUNCTION      0.00   607.45     0  02:23           0         2.4       0.921
  YS02001661           JUNCTION      0.00   647.77     0  02:36           0        2.44       0.205
  YS02001664           JUNCTION    361.21   367.61     0  02:36        2.38        2.43       0.245
  YS02001622           JUNCTION      0.00   291.04     0  03:01           0        2.22       1.445
  YS02001633           JUNCTION    326.74   397.27     0  02:35        2.66        4.31       0.748
  YS02001649           JUNCTION      0.00   839.55     0  02:35           0        7.08       0.537
  YS02001757           JUNCTION      0.00  1581.25     0  02:35           0        7.79       1.203
  YS02001895           JUNCTION      0.00   494.96     0  03:01           0        3.17       0.154
  YS02001625           JUNCTION      0.00   290.81     0  03:01           0        2.19       1.800
  YS02163301           JUNCTION      0.00   203.25     0  02:28           0        1.67       1.482
  YS02163601           JUNCTION      0.11   397.65     0  02:35      0.0031        4.28       0.709
  YS02164001           JUNCTION      0.00   397.80     0  02:35           0        4.25       0.473
  YS02001647           JUNCTION      0.00   734.50     0  03:10           0        6.44       0.440
  YSB1154              JUNCTION     26.18    26.18     0  03:01       0.129        0.13       1.132
  YSB6556              JUNCTION      0.00    25.82     0  03:01           0        0.13       0.969
  YSB1174              JUNCTION     20.52    20.52     0  03:01      0.0948      0.0953       1.369
  YSB1171              JUNCTION      0.00    45.30     0  03:01           0       0.231       2.821
  YS02006553           JUNCTION      0.00   743.59     0  02:54           0        6.71       0.221
  YS02006561           JUNCTION      0.00  1135.75     0  02:54           0        9.59       0.004
  YS02006556           JUNCTION      0.00   743.93     0  02:54           0        6.71       0.151
  YS02006558           JUNCTION    433.40  1135.93     0  02:54        2.93        9.62       0.048
  YS02001783           JUNCTION      0.00  1135.62     0  02:54           0        9.59       0.020
  YS02001784           JUNCTION      1.06  1136.98     0  02:54      0.0299        9.62       0.036
  YS02001786           JUNCTION      0.06  1136.72     0  02:54     0.00159        9.62       0.035
  YS02001788           JUNCTION      0.07  1137.12     0  02:54       0.002        9.61       0.021
  YS02001790           JUNCTION      0.15  1130.51     0  02:54     0.00437        9.62       0.027
  YS02001791           JUNCTION      0.00  1162.53     0  02:51           0        9.61       0.005
  YS02001793           JUNCTION      0.00  1106.79     0  02:52           0        9.65      -0.062
  WSC                  OUTFALL       0.00  1024.57     0  03:08           0        14.9       0.000
  JK-storage           STORAGE       0.00  1153.47     0  02:25           0        9.81       0.073
  CC-storage           STORAGE       0.00  1581.12     0  02:35           0        4.07       1.623
  XR-storage           STORAGE     844.76   844.76     0  03:01        11.8        12.4      -0.003
  
  
  **********************
  Node Surcharge Summary
  **********************
  
  Surcharging occurs when water rises above the top of the highest conduit.
  ---------------------------------------------------------------------
                                               Max. Height   Min. Depth
                                   Hours       Above Crown    Below Rim
  Node                 Type      Surcharged         Meters       Meters
  ---------------------------------------------------------------------
  WS02004401           JUNCTION        0.15          0.030        1.630
  WS02004402           JUNCTION        0.23          0.040        1.700
  WS02004403           JUNCTION        0.24          0.038        1.992
  WS02004404           JUNCTION        0.70          0.103        2.677
  WS02004406           JUNCTION        0.49          0.060        2.390
  WS02004405           JUNCTION        0.58          0.081        2.719
  WS02006109           JUNCTION        1.68          0.328        1.492
  WS02006110           JUNCTION        1.13          0.119        1.731
  WS02006112           JUNCTION        1.39          0.265        1.415
  WS02006230           JUNCTION        0.59          0.171        1.399
  WS02006231           JUNCTION        0.71          0.206        1.324
  WS02006232           JUNCTION        1.39          0.336        1.144
  WS02006234           JUNCTION        0.85          0.232        1.008
  WS02006235           JUNCTION        1.00          0.267        1.023
  WS02006238           JUNCTION        1.05          0.281        1.149
  WS02006240           JUNCTION        0.46          0.137        1.253
  WS02006242           JUNCTION        0.48          0.145        0.675
  WS02006243           JUNCTION        0.08          0.016        0.754
  WS02006239           JUNCTION        0.66          0.193        1.097
  WS02006256           JUNCTION        6.25          2.050        0.000
  WS02006228           JUNCTION        1.67          0.408        1.792
  YS02001748           JUNCTION        5.31          0.370        0.820
  YS02001751           JUNCTION        5.49          0.658        0.542
  YS02001754           JUNCTION        5.69          0.782        0.368
  YS02001762           JUNCTION        5.87          1.037        0.113
  YS02001765           JUNCTION        5.84          0.983        0.117
  YS02001767           JUNCTION        5.81          0.943        0.087
  YS02001770           JUNCTION        5.80          0.891        0.029
  YS02001774           JUNCTION        5.86          0.981        0.069
  YS02001779           JUNCTION        5.68          0.680        0.000
  YS02001882           JUNCTION        0.85          0.622        0.208
  YS02001884           JUNCTION        0.88          0.659        0.211
  YS02001759           JUNCTION        5.89          1.078        0.132
  YS02001887           JUNCTION        0.98          0.748        0.202
  YS02001890           JUNCTION        1.01          0.760        0.000
  YS02001898           JUNCTION        0.80          0.528        0.212
  YS02001901           JUNCTION        0.93          0.673        0.197
  YS02001904           JUNCTION        0.90          0.633        0.217
  YS02001907           JUNCTION        1.78          0.950        0.000
  YS02001910           JUNCTION        1.06          0.775        0.325
  YS02001915           JUNCTION        0.83          0.585        0.415
  YS02001918           JUNCTION        0.58          0.252        0.558
  YS02001619           JUNCTION        5.47          0.610        0.000
  YS02001629           JUNCTION        5.49          0.470        0.000
  YS02001641           JUNCTION        5.85          0.941        0.159
  YS02001644           JUNCTION        5.85          0.920        0.000
  YS02001652           JUNCTION        5.73          1.068        0.062
  YS02001655           JUNCTION        5.50          1.010        0.190
  YS02001920           JUNCTION        0.62          0.323        0.817
  YS02001658           JUNCTION        5.33          0.934        0.366
  YS02001661           JUNCTION        0.07          1.361        0.029
  YS02001622           JUNCTION        5.51          0.601        0.019
  YS02001633           JUNCTION        5.83          0.928        0.132
  YS02001649           JUNCTION        5.87          1.050        0.000
  YS02001757           JUNCTION        5.98          1.173        0.037
  YS02001895           JUNCTION        0.81          0.561        0.189
  YS02001625           JUNCTION        5.76          0.780        0.000
  YS02163301           JUNCTION        5.81          0.887        0.143
  YS02163601           JUNCTION        5.87          0.992        0.088
  YS02164001           JUNCTION        5.83          0.921        0.179
  YS02001647           JUNCTION        5.75          0.801        0.099
  YS02006553           JUNCTION        1.90          0.964        0.226
  YS02006561           JUNCTION        0.58          0.251        0.899
  YS02006556           JUNCTION        1.31          0.899        0.451
  YS02006558           JUNCTION        1.27          0.878        0.522
  YS02001783           JUNCTION        1.00          0.634        0.966
  YS02001784           JUNCTION        0.94          0.572        0.918
  YS02001786           JUNCTION        0.72          0.413        1.017
  YS02001788           JUNCTION        0.58          0.275        1.205
  YS02001790           JUNCTION        0.68          0.434        0.723
  YS02001791           JUNCTION        0.68          0.412        1.508
  YS02001793           JUNCTION        0.82          1.571        1.029
  
  
  *********************
  Node Flooding Summary
  *********************
  
  Flooding refers to all water that overflows a node, whether it ponds or not.
  --------------------------------------------------------------------------
                                                             Total   Maximum
                                 Maximum   Time of Max       Flood    Ponded
                        Hours       Rate    Occurrence      Volume     Depth
  Node                 Flooded       LPS   days hr:min    10^6 ltr    Meters
  --------------------------------------------------------------------------
  WS02006256              4.97    771.02      0  03:02       5.178     0.000
  YS02001779              2.85    622.01      0  03:08       2.452     0.000
  YS02001890              0.01      0.88      0  03:00       0.000     0.000
  YS02001907              0.43    387.56      0  03:00       0.306     0.000
  YS02001619              0.01     17.28      0  02:27       0.000     0.000
  YS02001629              0.01      7.89      0  02:27       0.000     0.000
  YS02001644              5.24   1397.25      0  03:01      10.860     0.000
  YS02001649              0.01     25.99      0  02:38       0.000     0.000
  YS02001625              1.18    235.77      0  03:01       0.464     0.000
  XR-storage              5.75    559.74      0  03:01       4.123     0.000
  
  
  **********************
  Storage Volume Summary
  **********************
  
  --------------------------------------------------------------------------------------------------
                         Average     Avg  Evap Exfil       Maximum     Max    Time of Max    Maximum
                          Volume    Pcnt  Pcnt  Pcnt        Volume    Pcnt     Occurrence    Outflow
  Storage Unit           1000 m3    Full  Loss  Loss       1000 m3    Full    days hr:min        LPS
  --------------------------------------------------------------------------------------------------
  JK-storage               0.224      77     0     0         0.288      99       0  03:10     983.00
  CC-storage               2.772      18     0     0         4.000      25       0  03:07     118.56
  XR-storage               0.904      98     0     0         0.926     100       0  02:04     285.00
  
  
  ***********************
  Outfall Loading Summary
  ***********************
  
  ---------------------------------------------------------------------------------------------------------------------------------
                         Flow       Avg       Max       Total         Total         Total         Total         Total         Total
                         Freq      Flow      Flow      Volume           COD            SS            TN            TP         NH4-N
  Outfall Node           Pcnt       LPS       LPS    10^6 ltr            kg            kg            kg            kg            kg
  ---------------------------------------------------------------------------------------------------------------------------------
  WSC                   99.99    624.24   1024.57      14.912      1881.669      3216.604       121.018        14.250        73.280
  ---------------------------------------------------------------------------------------------------------------------------------
  System                99.99    624.24   1024.57      14.912      1881.669      3216.604       121.018        14.250        73.280
  
  
  ********************
  Link Flow Summary
  ********************
  
  -----------------------------------------------------------------------------
                                 Maximum  Time of Max   Maximum    Max/    Max/
                                  |Flow|   Occurrence   |Veloc|    Full    Full
  Link                 Type          LPS  days hr:min     m/sec    Flow   Depth
  -----------------------------------------------------------------------------
  WS02003066WSF200     CONDUIT    718.13     0  03:06      2.85    0.12    0.27
  WS02006287WS02006284 CONDUIT    413.47     0  03:02      2.04    0.19    0.30
  WS02006284WS02006280 CONDUIT    413.61     0  03:02      2.28    0.17    0.28
  WS02006280WS02006229 CONDUIT    413.65     0  03:02      3.68    0.09    0.20
  WS02006229WS02006228 CONDUIT    707.15     0  03:02      1.41    2.34    1.00
  WS02006256WS02006235 CONDUIT    275.52     0  07:32      3.91    2.92    1.00
  WS02006253WS02006251 CONDUIT     83.60     0  03:01      0.50    0.25    0.71
  WS02006252WS02006251 CONDUIT      0.00     0  00:00      0.00    0.00    0.00
  WS02006251WS02006249 CONDUIT     80.32     0  03:01      0.55    0.23    0.75
  WS02006249WS02006248 CONDUIT     81.44     0  03:06      0.64    0.45    0.79
  WS02006248WS02006247 CONDUIT     85.11     0  03:06      0.61    0.19    0.86
  WS02006247WS02006245 CONDUIT     89.94     0  03:09      0.56    0.71    0.93
  WS02006245WS02006243 CONDUIT     96.21     0  03:09      0.68    0.28    0.97
  WS02006243WS02006242 CONDUIT    101.37     0  03:09      0.54    0.22    1.00
  WS02006242WS02006240 CONDUIT    101.55     0  03:09      0.68    0.40    1.00
  WS02006240WS02006239 CONDUIT    102.36     0  03:10      0.74    0.32    1.00
  WS02006239WS02006238 CONDUIT    126.99     0  05:45      0.79    0.41    1.00
  WS02006238WS02006235 CONDUIT    188.94     0  06:52      1.16    0.42    1.00
  WS02006235WS02006234 CONDUIT    327.56     0  03:13      1.12    3.46    1.00
  WS02006234WS02006232 CONDUIT    327.97     0  03:13      0.94    0.66    1.00
  WS02006232WS02006231 CONDUIT    328.05     0  03:13      0.86    0.69    1.00
  WS02006231WS02006230 CONDUIT    330.47     0  03:15      1.21    5.01    1.00
  WS02006230WS02006229 CONDUIT    344.47     0  03:15      0.90    7.67    1.00
  WS02006228WS02006109 CONDUIT    707.08     0  03:02      1.41    3.09    1.00
  WS02006116WS02004401 CONDUIT    719.14     0  03:03      0.92    0.99    1.00
  WS02006115WS02006116 CONDUIT    719.43     0  03:03      0.93    0.92    0.96
  WS02006113WS02006111 CONDUIT    720.39     0  02:59      2.60    0.86    0.60
  WS02006112WS02006115 CONDUIT    719.99     0  03:03      0.92    0.42    0.97
  WS02006111WS02006112 CONDUIT    707.25     0  03:03      1.71    0.34    0.77
  WS02006110WS02006113 CONDUIT    708.27     0  03:02      1.60    0.64    0.83
  WS02006109WS02006110 CONDUIT    708.44     0  03:02      1.41    1.36    1.00
  WS02004411WS02004412 CONDUIT    718.08     0  03:05      1.08    1.02    0.79
  WS02004401WS02004402 CONDUIT    719.21     0  03:04      0.92    0.86    1.00
  WS02004413WS02003067 CONDUIT    717.91     0  03:05      1.31    0.31    0.66
  WS02004412WS02004413 CONDUIT    717.92     0  03:05      0.99    0.48    0.86
  WS02004410WS02004411 CONDUIT    718.33     0  03:05      1.07    0.98    0.80
  WS02004409WS02004410 CONDUIT    718.81     0  03:04      1.08    0.93    0.79
  WS02004407WS02004409 CONDUIT    719.56     0  03:04      1.57    0.25    0.57
  WS02004406WS02004407 CONDUIT    719.71     0  03:04      1.28    0.32    0.67
  WS02004405WS02004406 CONDUIT    719.66     0  03:04      0.92    1.42    1.00
  WS02004404WS02004405 CONDUIT    719.59     0  03:04      0.92    7.05    1.00
  WS02004403WS02004404 CONDUIT    719.39     0  03:04      0.92    0.52    1.00
  WS02004402WS02004403 CONDUIT    719.31     0  03:04      0.92    1.03    1.00
  WS02004139WS02001211 CONDUIT    287.48     0  03:18      0.54    0.36    0.55
  WS02004138WS02004139 CONDUIT    285.00     0  03:50      2.39    0.06    0.40
  WS02003067WS02003066 CONDUIT    718.07     0  03:05      1.42    0.23    0.46
  WS02001213WS02003059 CONDUIT    302.46     0  03:17      0.59    0.50    0.77
  WS02001212WS02001213 CONDUIT    299.37     0  03:18      1.19    0.46    0.45
  WS02001211WS02001212 CONDUIT    297.38     0  03:18      0.67    0.23    0.61
  WS02003072WS02003073 CONDUIT   1022.80     0  03:08      1.78    2.21    0.51
  WS02003069WS02003072 CONDUIT   1022.81     0  03:07      1.67    0.49    0.53
  WS02003060WS02003069 CONDUIT   1022.54     0  03:07      1.90    0.40    0.48
  WS02003059WS02003060 CONDUIT    306.68     0  03:16      0.82    0.20    0.68
  HS02004901HS02004770 CONDUIT     20.52     0  03:01      0.07    0.08    0.42
  HS02004876HS02004881 CONDUIT     76.54     0  03:01      0.95    0.81    0.12
  HS02004870HS02004876 CONDUIT     61.90     0  03:01      0.65    0.04    0.14
  HS02004842HS02004848 CONDUIT     12.41     0  03:01      0.06    0.01    0.31
  HS02004837HS02004842 CONDUIT     12.98     0  03:02      0.42    0.01    0.32
  HS02004830HS02004837 CONDUIT     43.71     0  03:01      0.57    0.04    0.11
  HS02004824HS02004830 CONDUIT     43.66     0  03:01      0.59    0.06    0.11
  HS02004817HS02004824 CONDUIT     85.68     0  03:01      0.26    0.04    0.48
  HS02004770HS02004777 CONDUIT    104.13     0  03:01      0.35    0.19    0.43
  HS02004799HS02004480 CONDUIT    258.30     0  03:01      0.83    0.33    0.44
  HS02004792HS02004799 CONDUIT    237.04     0  03:01      0.95    0.15    0.36
  HS02004788HS02004792 CONDUIT    135.42     0  03:01      1.06    0.09    0.18
  HS02004785HS02004788 CONDUIT    103.22     0  03:02      0.71    0.78    0.21
  HS02004777HS02004785 CONDUIT    103.37     0  03:01      0.42    0.13    0.35
  HS02004480HS02004478 CONDUIT    302.29     0  03:01      1.26    1.27    0.34
  HS02004479HS02004480 CONDUIT     46.29     0  03:02      0.32    0.04    0.43
  HS02004862HS02004870 CONDUIT     47.43     0  03:01      0.66    0.05    0.10
  HS02004848HS02004852 CONDUIT     21.94     0  03:01      0.45    0.02    0.07
  HS02004856HS02004862 CONDUIT     32.47     0  03:01      0.48    0.03    0.10
  HS02004852HS02004856 CONDUIT     21.85     0  03:02      0.25    0.02    0.13
  HS02004802HS02004478 CONDUIT    111.52     0  03:02      0.45    0.10    0.36
  HS02004478WS02006287 CONDUIT    413.22     0  03:01      1.75    0.12    0.26
  HS02004817HS02004807 CONDUIT     86.14     0  03:01      0.19    0.05    0.63
  HS02004807HS02004802 CONDUIT    111.36     0  03:01      0.38    0.21    0.42
  YS02001759YS02001757 CONDUIT    574.04     0  02:38      0.73    0.41    1.00
  YS02001762YS02001759 CONDUIT    292.49     0  02:38      0.37    0.34    1.00
  YS02001765YS02001762 CONDUIT    292.93     0  02:38      0.37    0.27    1.00
  YS02001770YS02001767 CONDUIT    293.22     0  02:38      0.37    1.16    1.00
  YS02001774YS02001770 CONDUIT    621.80     0  03:08      0.79    0.40    1.00
  YS02001779YS02001774 CONDUIT    622.02     0  03:08      0.79    0.31    1.00
  YS02001649YS02001757 CONDUIT    840.54     0  02:35      1.07    0.51    1.00
  YS02001767YS02001765 CONDUIT    294.04     0  02:38      0.37    0.37    1.00
  YS02006561YS02001783 CONDUIT   1135.62     0  02:54      2.27    0.59    1.00
  YS02001783YS02001784 CONDUIT   1135.92     0  02:54      2.26    1.57    1.00
  YS02001784YS02001785 CONDUIT   1136.67     0  02:54      2.26    2.65    1.00
  YS02001788YS02001790 CONDUIT   1130.35     0  02:54      2.68    0.83    1.00
  YS02001790YS02001791 CONDUIT   1162.53     0  02:51      3.19    1.26    1.00
  YS02001791YS02001793 CONDUIT   1106.79     0  02:52      4.63    0.48    1.00
  YS02001910YS02001907 CONDUIT    480.26     0  02:55      0.61    0.27    1.00
  YS02001786YS02001788 CONDUIT   1137.05     0  02:54      2.41    2.19    1.00
  YS02001915YS02001910 CONDUIT    480.43     0  02:56      0.61    0.24    1.00
  YS02001918YS02001915 CONDUIT    244.47     0  03:31      0.44    0.13    1.00
  YS02001923YS02001920 CONDUIT    204.05     0  02:55      0.71    0.09    1.00
  YS02001926YS02001923 CONDUIT    203.54     0  02:55      0.83    0.29    0.87
  YS02001929YS02001926 CONDUIT    176.83     0  02:56      0.88    0.08    0.77
  YS02001920YS02001918 CONDUIT    219.03     0  03:31      0.70    0.21    1.00
  YS02001629YS02163301 CONDUIT    203.25     0  02:28      0.26    0.25    1.00
  YS02001619YS02001622 CONDUIT    291.04     0  03:01      0.61    0.43    1.00
  YS02001622YS02001625 CONDUIT    290.81     0  03:01      0.37    0.16    1.00
  YS02001625YS02001629 CONDUIT    216.12     0  02:17      0.28    0.10    1.00
  YS02163301YS02001633 CONDUIT    206.66     0  02:28      0.26    0.19    1.00
  YS02163601YS02164001 CONDUIT    397.80     0  02:35      0.51    0.35    1.00
  YS02164001YS02001641 CONDUIT    402.49     0  02:28      0.51    0.55    1.00
  YS02001641YS02001644 CONDUIT    406.27     0  02:28      0.52    1.31    1.00
  YS02001647YS02001649 CONDUIT    734.50     0  03:10      0.94    0.39    1.00
  YS02006553YS02006556 CONDUIT    743.93     0  02:54      0.95    0.64    1.00
  YS02006556YS02006558 CONDUIT    743.87     0  02:54      0.95    0.59    1.00
  YSB6556YSB1171       CONDUIT     25.75     0  03:03      0.09    0.03    0.70
  YS02001907YS02006553 CONDUIT    743.59     0  02:54      0.83    0.87    1.00
  YS02006558YS02006561 CONDUIT   1135.75     0  02:54      4.02    2.51    1.00
  YS02001633YS02163601 CONDUIT    397.54     0  02:35      0.51    0.42    1.00
  YS02001644YS02001647 CONDUIT    734.79     0  03:10      0.94    0.43    1.00
  YS02001745YS02001748 CONDUIT    551.87     0  02:27      1.47    0.21    0.96
  YS02001748YS02001751 CONDUIT    380.79     0  02:17      1.06    0.19    1.00
  YS02001751YS02001754 CONDUIT    341.46     0  03:01      0.92    0.16    1.00
  YS02001754YS02001757 CONDUIT    342.34     0  03:01      0.44    0.14    1.00
  YS02001882YS02001884 CONDUIT     13.11     0  02:41      0.13    0.02    1.00
  YS02001884YS02001887 CONDUIT     18.29     0  03:47      0.09    0.02    1.00
  YS02001890YS02001895 CONDUIT    494.96     0  03:01      0.63    0.23    1.00
  YS02001895YS02001898 CONDUIT    494.97     0  03:01      0.63    0.86    1.00
  YS02001898YS02001901 CONDUIT    495.70     0  03:01      0.63    0.32    1.00
  YS02001901YS02001904 CONDUIT    495.71     0  03:01      0.63    0.77    1.00
  YS02001904YS02001907 CONDUIT    495.92     0  03:01      0.63    0.17    1.00
  YS02001887YS02001890 CONDUIT    494.93     0  03:00      0.63    0.85    1.00
  YS02001652YS02001649 CONDUIT    370.33     0  03:01      0.63    0.18    1.00
  YS02001655YS02001652 CONDUIT    370.39     0  03:01      0.98    0.18    1.00
  YS02001658YS02001655 CONDUIT    391.09     0  02:19      1.22    0.17    1.00
  YS02001661YS02001658 CONDUIT    607.45     0  02:23      1.55    0.24    1.00
  YS02001664YS02001661 CONDUIT    647.77     0  02:36      1.43    0.20    0.77
  YSB1154YSB6556       CONDUIT     25.82     0  03:01      0.17    0.05    0.59
  YSB1174YSB1171       CONDUIT     20.15     0  03:01      0.07    0.03    0.70
  YSB1171HS02004479    CONDUIT     44.90     0  03:02      0.54    0.03    0.55
  HS02004881HS02006253 CONDUIT     84.16     0  03:01      2.06    0.02    0.15
  YS02001793JiankangQianchi CONDUIT   1153.47     0  02:25      1.82    0.09    1.00
  YS02001757CaochengTiaoxuchi CONDUIT   1581.12     0  02:35      2.03    0.69    1.00
  WSF200WS02003060     CONDUIT    718.31     0  03:06      1.82    0.16    0.38
  1                    CONDUIT   1024.57     0  03:08      3.35    0.36    0.41
  CC-Pump-1            PUMP         0.00     0  00:00              0.00
  CC-Pump-2            PUMP         0.00     0  00:00              0.00
  JK-Pump-1            PUMP       300.00     0  01:44              1.00
  JK-Pump-2            PUMP       683.00     0  02:05              1.00
  XR-Pump-1            PUMP        95.00     0  00:00              1.00
  XR-Pump-2            PUMP        95.00     0  00:25              1.00
  XR-Pump-3            PUMP        95.00     0  01:31              1.00
  XR-Pump-4            PUMP         0.00     0  00:00              0.00
  
  
  ***************************
  Flow Classification Summary
  ***************************
  
  -------------------------------------------------------------------------------------
                      Adjusted    ---------- Fraction of Time in Flow Class ---------- 
                       /Actual         Up    Down  Sub   Sup   Up    Down  Norm  Inlet 
  Conduit               Length    Dry  Dry   Dry   Crit  Crit  Crit  Crit  Ltd   Ctrl  
  -------------------------------------------------------------------------------------
  WS02003066WSF200        1.00   0.14  0.00  0.00  0.00  0.86  0.00  0.00  0.57  0.00
  WS02006287WS02006284    1.00   0.05  0.03  0.00  0.38  0.55  0.00  0.00  0.62  0.00
  WS02006284WS02006280    1.00   0.07  0.00  0.00  0.00  0.00  0.00  0.93  0.00  0.00
  WS02006280WS02006229    1.00   0.07  0.00  0.00  0.00  0.00  0.00  0.93  0.00  0.00
  WS02006229WS02006228    1.00   0.00  0.00  0.00  1.00  0.00  0.00  0.00  0.00  0.00
  WS02006256WS02006235    1.00   0.10  0.00  0.00  0.90  0.01  0.00  0.00  0.01  0.00
  WS02006253WS02006251    1.00   0.02  0.03  0.00  0.93  0.00  0.01  0.00  0.00  0.00
  WS02006252WS02006251    1.00   1.00  0.00  0.00  0.00  0.00  0.00  0.00  0.00  0.00
  WS02006251WS02006249    1.00   0.00  0.00  0.00  1.00  0.00  0.00  0.00  0.74  0.00
  WS02006249WS02006248    1.00   0.00  0.01  0.00  0.72  0.00  0.27  0.00  0.00  0.00
  WS02006248WS02006247    1.00   0.01  0.00  0.00  0.96  0.00  0.00  0.03  0.27  0.00
  WS02006247WS02006245    1.00   0.01  0.00  0.00  0.94  0.00  0.00  0.05  0.00  0.00
  WS02006245WS02006243    1.00   0.02  0.00  0.00  0.91  0.00  0.00  0.08  0.01  0.00
  WS02006243WS02006242    1.00   0.02  0.00  0.00  0.91  0.00  0.00  0.07  0.16  0.00
  WS02006242WS02006240    1.00   0.02  0.06  0.00  0.90  0.00  0.01  0.00  0.00  0.00
  WS02006240WS02006239    1.00   0.08  0.00  0.00  0.88  0.00  0.00  0.04  0.01  0.00
  WS02006239WS02006238    1.00   0.08  0.00  0.00  0.90  0.00  0.00  0.01  0.00  0.00
  WS02006238WS02006235    1.00   0.09  0.01  0.00  0.90  0.00  0.00  0.00  0.00  0.00
  WS02006235WS02006234    1.00   0.10  0.00  0.00  0.87  0.00  0.03  0.00  0.00  0.00
  WS02006234WS02006232    1.00   0.10  0.00  0.00  0.90  0.00  0.00  0.00  0.01  0.00
  WS02006232WS02006231    1.00   0.10  0.00  0.00  0.90  0.00  0.00  0.00  0.01  0.00
  WS02006231WS02006230    1.00   0.10  0.00  0.00  0.47  0.00  0.43  0.00  0.00  0.00
  WS02006230WS02006229    1.00   0.00  0.00  0.00  0.98  0.00  0.00  0.02  0.00  0.00
  WS02006228WS02006109    1.00   0.00  0.00  0.00  1.00  0.00  0.00  0.00  0.01  0.00
  WS02006116WS02004401    1.00   0.05  0.00  0.00  0.95  0.00  0.00  0.00  0.00  0.00
  WS02006115WS02006116    1.00   0.05  0.00  0.00  0.90  0.00  0.00  0.05  0.00  0.00
  WS02006113WS02006111    1.00   0.03  0.00  0.00  0.01  0.95  0.00  0.00  0.32  0.00
  WS02006112WS02006115    1.00   0.03  0.02  0.00  0.94  0.00  0.00  0.00  0.00  0.00
  WS02006111WS02006112    1.00   0.03  0.00  0.00  0.96  0.00  0.00  0.00  0.85  0.00
  WS02006110WS02006113    1.00   0.01  0.03  0.00  0.97  0.00  0.00  0.00  0.00  0.00
  WS02006109WS02006110    1.00   0.00  0.01  0.00  0.99  0.00  0.01  0.00  0.00  0.00
  WS02004411WS02004412    1.00   0.11  0.00  0.00  0.89  0.00  0.00  0.00  0.00  0.00
  WS02004401WS02004402    1.00   0.05  0.00  0.00  0.95  0.00  0.00  0.00  0.04  0.00
  WS02004413WS02003067    1.00   0.12  0.01  0.00  0.00  0.00  0.87  0.00  0.00  0.00
  WS02004412WS02004413    1.00   0.12  0.00  0.00  0.88  0.00  0.00  0.00  0.00  0.00
  WS02004410WS02004411    1.00   0.11  0.00  0.00  0.89  0.00  0.00  0.00  0.00  0.00
  WS02004409WS02004410    1.00   0.11  0.00  0.00  0.89  0.00  0.00  0.00  0.00  0.00
  WS02004407WS02004409    1.00   0.11  0.00  0.00  0.88  0.01  0.00  0.00  0.79  0.00
  WS02004406WS02004407    1.00   0.00  0.11  0.00  0.89  0.00  0.00  0.00  0.00  0.00
  WS02004405WS02004406    1.00   0.00  0.00  0.00  1.00  0.00  0.00  0.00  0.04  0.00
  WS02004404WS02004405    1.00   0.00  0.00  0.00  1.00  0.00  0.00  0.00  0.01  0.00
  WS02004403WS02004404    1.00   0.00  0.06  0.00  0.94  0.00  0.00  0.00  0.04  0.00
  WS02004402WS02004403    1.00   0.05  0.00  0.00  0.95  0.00  0.00  0.00  0.00  0.00
  WS02004139WS02001211    1.00   0.00  0.00  0.00  1.00  0.00  0.00  0.00  0.00  0.00
  WS02004138WS02004139    1.00   0.00  0.00  0.00  0.99  0.00  0.00  0.00  1.00  0.00
  WS02003067WS02003066    1.00   0.13  0.01  0.00  0.86  0.00  0.00  0.00  0.00  0.00
  WS02001213WS02003059    1.00   0.00  0.00  0.00  1.00  0.00  0.00  0.00  0.00  0.00
  WS02001212WS02001213    1.00   0.00  0.00  0.00  0.71  0.00  0.28  0.00  0.00  0.00
  WS02001211WS02001212    1.00   0.00  0.00  0.00  1.00  0.00  0.00  0.00  0.00  0.00
  WS02003072WS02003073    1.00   0.00  0.00  0.00  0.00  0.00  0.00  1.00  0.00  0.00
  WS02003069WS02003072    1.00   0.00  0.00  0.00  1.00  0.00  0.00  0.00  0.21  0.00
  WS02003060WS02003069    1.00   0.00  0.00  0.00  0.99  0.01  0.00  0.00  0.15  0.00
  WS02003059WS02003060    1.00   0.00  0.00  0.00  1.00  0.00  0.00  0.00  0.02  0.00
  HS02004901HS02004770    1.00   0.06  0.00  0.00  0.94  0.00  0.00  0.00  0.00  0.00
  HS02004876HS02004881    1.00   0.01  0.00  0.00  0.85  0.14  0.00  0.00  0.00  0.00
  HS02004870HS02004876    1.00   0.00  0.00  0.00  0.99  0.00  0.00  0.00  0.95  0.00
  HS02004842HS02004848    1.00   0.00  0.06  0.00  0.94  0.00  0.00  0.00  0.55  0.00
  HS02004837HS02004842    1.00   0.00  0.00  0.00  1.00  0.00  0.00  0.00  0.11  0.00
  HS02004830HS02004837    1.00   0.00  0.00  0.00  1.00  0.00  0.00  0.00  0.99  0.00
  HS02004824HS02004830    1.00   0.00  0.00  0.00  1.00  0.00  0.00  0.00  0.00  0.00
  HS02004817HS02004824    1.00   0.00  0.00  0.00  1.00  0.00  0.00  0.00  1.00  0.00
  HS02004770HS02004777    1.00   0.00  0.06  0.00  0.94  0.00  0.00  0.00  0.02  0.00
  HS02004799HS02004480    1.00   0.00  0.02  0.00  0.92  0.00  0.06  0.00  0.00  0.00
  HS02004792HS02004799    1.00   0.00  0.00  0.00  0.99  0.01  0.00  0.00  0.98  0.00
  HS02004788HS02004792    1.00   0.00  0.00  0.00  1.00  0.00  0.00  0.00  0.98  0.00
  HS02004785HS02004788    1.00   0.00  0.00  0.00  1.00  0.00  0.00  0.00  0.00  0.00
  HS02004777HS02004785    1.00   0.00  0.00  0.00  1.00  0.00  0.00  0.00  0.12  0.00
  HS02004480HS02004478    1.00   0.06  0.00  0.00  0.45  0.00  0.00  0.48  0.00  0.00
  HS02004479HS02004480    1.00   0.02  0.00  0.00  0.98  0.00  0.00  0.00  0.11  0.00
  HS02004862HS02004870    1.00   0.00  0.00  0.00  1.00  0.00  0.00  0.00  0.03  0.00
  HS02004848HS02004852    1.00   0.06  0.00  0.00  0.94  0.00  0.00  0.00  0.62  0.00
  HS02004856HS02004862    1.00   0.00  0.08  0.00  0.92  0.00  0.00  0.00  0.83  0.00
  HS02004852HS02004856    1.00   0.06  0.01  0.00  0.93  0.00  0.00  0.00  0.85  0.00
  HS02004802HS02004478    1.00   0.06  0.00  0.00  0.93  0.00  0.00  0.00  0.02  0.00
  HS02004478WS02006287    1.00   0.08  0.00  0.00  0.54  0.38  0.00  0.00  0.64  0.00
  HS02004817HS02004807    1.00   0.00  0.06  0.00  0.94  0.00  0.00  0.00  0.01  0.00
  HS02004807HS02004802    1.00   0.06  0.00  0.00  0.93  0.00  0.00  0.01  0.00  0.00
  YS02001759YS02001757    1.00   0.00  0.00  0.00  1.00  0.00  0.00  0.00  0.16  0.00
  YS02001762YS02001759    1.00   0.00  0.00  0.00  1.00  0.00  0.00  0.00  0.03  0.00
  YS02001765YS02001762    1.00   0.00  0.00  0.00  1.00  0.00  0.00  0.00  0.13  0.00
  YS02001770YS02001767    1.00   0.00  0.00  0.00  1.00  0.00  0.00  0.00  0.00  0.00
  YS02001774YS02001770    1.00   0.00  0.07  0.00  0.93  0.00  0.00  0.00  0.03  0.00
  YS02001779YS02001774    1.00   0.00  0.00  0.00  1.00  0.00  0.00  0.00  0.18  0.00
  YS02001649YS02001757    1.00   0.00  0.00  0.00  1.00  0.00  0.00  0.00  0.16  0.00
  YS02001767YS02001765    1.00   0.00  0.00  0.00  1.00  0.00  0.00  0.00  0.00  0.00
  YS02006561YS02001783    1.00   0.09  0.00  0.00  0.31  0.60  0.00  0.00  0.47  0.00
  YS02001783YS02001784    1.00   0.00  0.09  0.00  0.91  0.00  0.00  0.00  0.01  0.00
  YS02001784YS02001785    1.00   0.00  0.00  0.00  1.00  0.00  0.00  0.00  0.17  0.00
  YS02001788YS02001790    1.00   0.00  0.00  0.00  0.26  0.74  0.00  0.00  0.44  0.00
  YS02001790YS02001791    1.00   0.00  0.00  0.00  0.17  0.83  0.00  0.00  0.62  0.00
  YS02001791YS02001793    1.00   0.00  0.00  0.00  0.44  0.56  0.00  0.00  0.35  0.00
  YS02001910YS02001907    1.00   0.00  0.00  0.00  0.99  0.00  0.00  0.01  0.12  0.00
  YS02001786YS02001788    1.00   0.00  0.00  0.00  0.31  0.69  0.00  0.00  0.00  0.00
  YS02001915YS02001910    1.00   0.00  0.00  0.00  0.98  0.02  0.00  0.00  0.15  0.00
  YS02001918YS02001915    1.00   0.00  0.00  0.00  0.99  0.01  0.00  0.00  0.54  0.00
  YS02001923YS02001920    1.00   0.00  0.00  0.00  1.00  0.00  0.00  0.00  0.84  0.00
  YS02001926YS02001923    1.00   0.00  0.04  0.00  0.19  0.00  0.78  0.00  0.00  0.00
  YS02001929YS02001926    1.00   0.00  0.06  0.00  0.94  0.00  0.00  0.00  0.78  0.00
  YS02001920YS02001918    1.00   0.00  0.00  0.00  1.00  0.00  0.00  0.00  0.00  0.00
  YS02001629YS02163301    1.00   0.07  0.01  0.00  0.92  0.00  0.00  0.00  0.00  0.00
  YS02001619YS02001622    1.00   0.06  0.00  0.00  0.94  0.00  0.00  0.00  0.00  0.00
  YS02001622YS02001625    1.00   0.06  0.00  0.00  0.94  0.00  0.00  0.00  0.04  0.00
  YS02001625YS02001629    1.00   0.06  0.03  0.00  0.87  0.00  0.03  0.00  0.00  0.00
  YS02163301YS02001633    1.00   0.00  0.07  0.00  0.93  0.00  0.00  0.00  0.00  0.00
  YS02163601YS02164001    1.00   0.00  0.04  0.00  0.96  0.00  0.00  0.00  0.00  0.00
  YS02164001YS02001641    1.00   0.00  0.04  0.00  0.96  0.00  0.00  0.00  0.06  0.00
  YS02001641YS02001644    1.00   0.00  0.00  0.00  1.00  0.00  0.00  0.00  0.00  0.00
  YS02001647YS02001649    1.00   0.00  0.08  0.00  0.92  0.00  0.00  0.00  0.01  0.00
  YS02006553YS02006556    1.00   0.01  0.00  0.00  0.99  0.00  0.00  0.00  0.03  0.00
  YS02006556YS02006558    1.00   0.00  0.00  0.00  1.00  0.00  0.00  0.00  0.00  0.00
  YSB6556YSB1171          1.00   0.02  0.04  0.00  0.94  0.00  0.00  0.00  0.00  0.00
  YS02001907YS02006553    1.00   0.00  0.01  0.00  0.99  0.00  0.00  0.00  0.00  0.00
  YS02006558YS02006561    1.00   0.09  0.00  0.00  0.16  0.75  0.00  0.00  0.52  0.00
  YS02001633YS02163601    1.00   0.00  0.00  0.00  1.00  0.00  0.00  0.00  0.15  0.00
  YS02001644YS02001647    1.00   0.00  0.08  0.00  0.92  0.00  0.00  0.00  0.00  0.00
  YS02001745YS02001748    1.00   0.00  0.00  0.00  0.83  0.01  0.00  0.16  0.04  0.00
  YS02001748YS02001751    1.00   0.00  0.00  0.00  0.94  0.06  0.00  0.00  0.15  0.00
  YS02001751YS02001754    1.00   0.00  0.00  0.00  0.90  0.00  0.00  0.10  0.02  0.00
  YS02001754YS02001757    1.00   0.00  0.00  0.00  1.00  0.00  0.00  0.00  0.18  0.00
  YS02001882YS02001884    1.00   0.07  0.00  0.00  0.93  0.00  0.00  0.00  0.00  0.00
  YS02001884YS02001887    1.00   0.03  0.03  0.00  0.94  0.00  0.00  0.00  0.00  0.00
  YS02001890YS02001895    1.00   0.00  0.08  0.00  0.92  0.00  0.00  0.00  0.00  0.00
  YS02001895YS02001898    1.00   0.08  0.00  0.00  0.90  0.00  0.02  0.00  0.00  0.00
  YS02001898YS02001901    1.00   0.08  0.00  0.00  0.92  0.00  0.00  0.00  0.01  0.00
  YS02001901YS02001904    1.00   0.08  0.00  0.00  0.92  0.00  0.00  0.00  0.00  0.00
  YS02001904YS02001907    1.00   0.00  0.08  0.00  0.92  0.00  0.00  0.00  0.00  0.00
  YS02001887YS02001890    1.00   0.00  0.00  0.00  0.98  0.00  0.01  0.00  0.00  0.00
  YS02001652YS02001649    1.00   0.00  0.00  0.00  0.99  0.01  0.00  0.00  0.16  0.00
  YS02001655YS02001652    1.00   0.00  0.00  0.00  0.90  0.00  0.00  0.10  0.02  0.00
  YS02001658YS02001655    1.00   0.00  0.07  0.00  0.88  0.06  0.00  0.00  0.08  0.00
  YS02001661YS02001658    1.00   0.07  0.00  0.00  0.83  0.10  0.00  0.00  0.08  0.00
  YS02001664YS02001661    1.00   0.06  0.00  0.00  0.84  0.10  0.00  0.00  0.19  0.00
  YSB1154YSB6556          1.00   0.06  0.00  0.00  0.94  0.00  0.00  0.00  0.01  0.00
  YSB1174YSB1171          1.00   0.02  0.02  0.00  0.95  0.00  0.00  0.00  0.00  0.00
  YSB1171HS02004479       1.00   0.02  0.00  0.00  0.97  0.00  0.00  0.01  0.10  0.00
  HS02004881HS02006253    1.00   0.03  0.00  0.00  0.04  0.07  0.00  0.86  0.07  0.00
  YS02001793JiankangQianchi    1.00   0.00  0.00  0.00  1.00  0.00  0.00  0.00  0.41  0.00
  YS02001757CaochengTiaoxuchi    1.00   0.00  0.12  0.00  0.88  0.00  0.00  0.00  0.00  0.00
  WSF200WS02003060        1.00   0.00  0.14  0.00  0.86  0.00  0.00  0.00  0.51  0.00
  1                       1.00   0.00  0.00  0.00  0.00  1.00  0.00  0.00  0.36  0.00
  
  
  *************************
  Conduit Surcharge Summary
  *************************
  
  ----------------------------------------------------------------------------
                                                           Hours        Hours 
                         --------- Hours Full --------   Above Full   Capacity
  Conduit                Both Ends  Upstream  Dnstream   Normal Flow   Limited
  ----------------------------------------------------------------------------
  WS02006229WS02006228        1.67      1.69      1.67      2.26         1.67
  WS02006256WS02006235        5.39      5.43      6.23      4.98         0.01
  WS02006245WS02006243        0.01      0.01      0.08      0.01         0.01
  WS02006243WS02006242        0.11      0.11      0.48      0.01         0.01
  WS02006242WS02006240        0.46      0.46      0.60      0.01         0.01
  WS02006240WS02006239        0.50      0.50      0.66      0.01         0.01
  WS02006239WS02006238        0.84      0.84      1.05      0.01         0.01
  WS02006238WS02006235        1.05      1.05      1.16      0.01         0.02
  WS02006235WS02006234        0.85      0.85      1.00      5.19         0.01
  WS02006234WS02006232        0.96      0.96      1.39      0.01         0.01
  WS02006232WS02006231        0.71      0.71      1.39      0.01         0.01
  WS02006231WS02006230        0.59      0.59      0.76      5.64         0.01
  WS02006230WS02006229        1.83      1.99      1.83      5.99         1.83
  WS02006228WS02006109        1.68      1.75      1.68      4.21         1.68
  WS02006116WS02004401        0.14      0.14      0.15      0.01         0.01
  WS02006112WS02006115        0.01      0.01      1.39      0.01         0.01
  WS02006111WS02006112        0.01      0.01      2.69      0.01         0.01
  WS02006110WS02006113        0.01      0.01      1.71      0.01         0.01
  WS02006109WS02006110        1.13      1.13      1.75      1.13         0.01
  WS02004411WS02004412        0.01      0.01      0.01      0.10         0.01
  WS02004401WS02004402        0.15      0.15      0.23      0.01         0.01
  WS02004406WS02004407        0.01      0.01      0.49      0.01         0.01
  WS02004405WS02004406        0.49      0.58      0.49      1.27         0.49
  WS02004404WS02004405        0.58      0.70      0.58      5.96         0.58
  WS02004403WS02004404        0.24      0.24      0.70      0.01         0.01
  WS02004402WS02004403        0.23      0.23      0.24      0.12         0.12
  WS02003072WS02003073        0.01      0.01      0.01      5.08         0.01
  HS02004480HS02004478        0.01      0.01      0.01      0.40         0.01
  YS02001759YS02001757        5.89      5.89      5.98      0.01         0.01
  YS02001762YS02001759        5.87      5.87      5.89      0.01         0.01
  YS02001765YS02001762        5.84      5.84      5.87      0.01         0.01
  YS02001770YS02001767        5.81      5.81      5.81      0.36         0.53
  YS02001774YS02001770        5.80      5.80      5.86      0.01         0.01
  YS02001779YS02001774        5.68      5.68      5.86      0.01         0.01
  YS02001649YS02001757        5.87      5.87      5.98      0.01         0.01
  YS02001767YS02001765        5.81      5.81      5.84      0.01         0.01
  YS02006561YS02001783        0.58      0.58      1.00      0.01         0.01
  YS02001783YS02001784        0.94      1.00      0.94      1.41         0.94
  YS02001784YS02001785        0.72      0.94      0.72      2.39         0.72
  YS02001788YS02001790        0.58      0.58      0.68      0.01         0.01
  YS02001790YS02001791        0.68      0.68      0.68      0.91         0.68
  YS02001791YS02001793        0.68      0.68      1.32      0.01         0.01
  YS02001910YS02001907        1.06      1.06      1.78      0.01         0.01
  YS02001786YS02001788        0.58      0.72      0.58      1.96         0.58
  YS02001915YS02001910        0.83      0.83      1.06      0.01         0.01
  YS02001918YS02001915        0.58      0.58      0.83      0.01         0.01
  YS02001923YS02001920        0.42      0.42      0.62      0.01         0.01
  YS02001920YS02001918        0.58      0.58      0.62      0.01         0.01
  YS02001629YS02163301        5.80      5.80      5.81      0.01         0.01
  YS02001619YS02001622        5.47      5.47      5.51      0.01         0.01
  YS02001622YS02001625        5.51      5.51      5.76      0.01         0.01
  YS02001625YS02001629        5.49      5.49      5.76      0.01         0.01
  YS02163301YS02001633        5.81      5.81      5.84      0.01         0.01
  YS02163601YS02164001        5.83      5.83      5.87      0.01         0.01
  YS02164001YS02001641        5.83      5.83      5.85      0.01         0.02
  YS02001641YS02001644        5.85      5.85      5.85      1.52         1.73
  YS02001647YS02001649        5.75      5.75      5.87      0.01         0.01
  YS02006553YS02006556        1.31      1.31      1.90      0.01         0.01
  YS02006556YS02006558        1.53      1.53      1.96      0.01         0.01
  YS02001907YS02006553        2.43      2.43      2.68      0.01         0.01
  YS02006558YS02006561        0.73      1.27      0.73      2.23         0.73
  YS02001633YS02163601        5.83      5.83      5.87      0.01         0.01
  YS02001644YS02001647        5.75      5.75      5.85      0.01         0.01
  YS02001745YS02001748        0.01      0.01      5.31      0.01         0.01
  YS02001748YS02001751        5.35      5.35      5.49      0.01         0.01
  YS02001751YS02001754        5.49      5.49      5.69      0.01         0.01
  YS02001754YS02001757        5.74      5.74      5.98      0.01         0.01
  YS02001882YS02001884        0.85      0.85      0.88      0.01         0.01
  YS02001884YS02001887        0.94      0.94      0.98      0.01         0.01
  YS02001890YS02001895        0.81      0.81      1.09      0.01         0.01
  YS02001895YS02001898        0.80      0.80      0.81      0.01         0.01
  YS02001898YS02001901        0.81      0.81      0.93      0.01         0.01
  YS02001901YS02001904        0.90      0.90      0.93      0.01         0.01
  YS02001904YS02001907        0.90      0.90      1.91      0.01         0.01
  YS02001887YS02001890        1.01      1.01      1.04      0.01         0.01
  YS02001652YS02001649        5.76      5.76      5.87      0.01         0.01
  YS02001655YS02001652        5.50      5.50      5.73      0.01         0.01
  YS02001658YS02001655        5.33      5.33      5.50      0.01         0.01
  YS02001661YS02001658        0.06      0.06      5.33      0.01         0.01
  YS02001664YS02001661        0.01      0.01      0.77      0.01         0.01
  YS02001793JiankangQianchi        0.82      0.82      7.82      0.01         0.01
  YS02001757CaochengTiaoxuchi        5.21      5.21      5.98      0.01         0.01
  
  
  ***************
  Pumping Summary
  ***************
  
  ---------------------------------------------------------------------------------------------------------
                                                  Min       Avg       Max     Total     Power    % Time Off
                        Percent   Number of      Flow      Flow      Flow    Volume     Usage    Pump Curve
  Pump                 Utilized   Start-Ups       LPS       LPS       LPS  10^6 ltr     Kw-hr    Low   High
  ---------------------------------------------------------------------------------------------------------
  CC-Pump-1                0.00           0      0.00      0.00      0.00     0.000      0.00    0.0    0.0
  CC-Pump-2                0.00           0      0.00      0.00      0.00     0.000      0.00    0.0    0.0
  JK-Pump-1               63.41           7      0.00    300.00    300.00     5.365     56.23    0.0    0.0
  JK-Pump-2               21.72          32      0.00    683.00    683.00     4.183     38.23    0.0  100.0
  XR-Pump-1              100.00           1      0.00     95.00     95.00     2.679     14.63    0.0    0.0
  XR-Pump-2               94.70           1      0.00     95.00     95.00     2.537     13.21    0.0    0.0
  XR-Pump-3               80.44           1      0.00     95.00     95.00     2.155     10.23    0.0    0.0
  XR-Pump-4                0.00           0      0.00      0.00      0.00     0.000      0.00    0.0    0.0
  
  
  ***************************
  Link Pollutant Load Summary
  ***************************
  
  ------------------------------------------------------------------------------------------
                                 COD            SS            TN            TP         NH4-N
  Link                            kg            kg            kg            kg            kg
  ------------------------------------------------------------------------------------------
  WS02003066WSF200           689.970      1262.217        19.267         1.737        10.293
  WS02006287WS02006284       268.063       498.231         9.344         0.943         5.213
  WS02006284WS02006280       268.552       499.022         9.391         0.948         5.242
  WS02006280WS02006229       268.522       498.969         9.389         0.948         5.240
  WS02006229WS02006228       688.687      1257.085        19.160         1.719        10.223
  WS02006256WS02006235       378.412       675.588         8.938         0.714         4.585
  WS02006253WS02006251        44.311        86.327         0.968         0.071         0.476
  WS02006252WS02006251         0.000         0.000         0.000         0.000         0.000
  WS02006251WS02006249        44.966        87.441         1.020         0.078         0.509
  WS02006249WS02006248        44.973        87.406         1.025         0.078         0.512
  WS02006248WS02006247        45.352        88.067         1.035         0.079         0.517
  WS02006247WS02006245        46.431        89.832         1.073         0.083         0.538
  WS02006245WS02006243        47.967        92.411         1.116         0.086         0.561
  WS02006243WS02006242        51.127        97.668         1.197         0.092         0.602
  WS02006242WS02006240        56.458       106.420         1.346         0.105         0.681
  WS02006240WS02006239        61.427       114.509         1.498         0.118         0.763
  WS02006239WS02006238        66.446       122.564         1.662         0.134         0.853
  WS02006238WS02006235        69.476       127.381         1.762         0.143         0.908
  WS02006235WS02006234       421.457       759.948         9.848         0.779         5.028
  WS02006234WS02006232       421.576       760.219         9.851         0.780         5.030
  WS02006232WS02006231       421.081       759.359         9.834         0.778         5.021
  WS02006231WS02006230       420.988       759.151         9.833         0.778         5.020
  WS02006230WS02006229       420.800       759.069         9.814         0.776         5.009
  WS02006228WS02006109       687.899      1255.875        19.112         1.714        10.195
  WS02006116WS02004401       700.862      1279.414        19.822         1.798        10.619
  WS02006115WS02006116       701.651      1280.630        19.862         1.802        10.643
  WS02006113WS02006111       694.413      1266.311        19.807         1.802        10.632
  WS02006112WS02006115       702.470      1281.924        19.909         1.808        10.671
  WS02006111WS02006112       694.299      1266.215        19.799         1.801        10.627
  WS02006110WS02006113       694.710      1266.797        19.825         1.804        10.642
  WS02006109WS02006110       695.611      1268.227        19.888         1.811        10.681
  WS02004411WS02004412       692.916      1266.853        19.435         1.756        10.393
  WS02004401WS02004402       699.848      1277.813        19.765         1.791        10.586
  WS02004413WS02003067       690.730      1263.458        19.302         1.741        10.313
  WS02004412WS02004413       691.878      1265.222        19.381         1.750        10.361
  WS02004410WS02004411       693.737      1268.157        19.476         1.761        10.417
  WS02004409WS02004410       694.452      1269.276        19.515         1.765        10.440
  WS02004407WS02004409       695.101      1270.310        19.546         1.768        10.459
  WS02004406WS02004407       695.409      1270.819        19.558         1.770        10.465
  WS02004405WS02004406       697.441      1274.059        19.695         1.786        10.549
  WS02004404WS02004405       698.421      1275.610        19.726         1.788        10.566
  WS02004403WS02004404       697.909      1274.758        19.656         1.779        10.521
  WS02004402WS02004403       698.827      1276.200        19.710         1.785        10.553
  WS02004139WS02001211      1046.100      1723.107        87.163        10.679        53.842
  WS02004138WS02004139      1050.685      1730.739        87.515        10.721        54.058
  WS02003067WS02003066       690.065      1262.356        19.274         1.738        10.297
  WS02001213WS02003059      1082.581      1780.836        90.853        11.143        56.157
  WS02001212WS02001213      1088.757      1791.077        91.341        11.202        56.457
  WS02001211WS02001212      1090.996      1794.696        91.545        11.228        56.584
  WS02003072WS02003073      1873.873      3204.784       120.055        14.126        72.669
  WS02003069WS02003072      1878.710      3212.476       120.506        14.182        72.950
  WS02003060WS02003069      1880.164      3214.911       120.586        14.191        72.997
  WS02003059WS02003060      1080.085      1776.664        90.666        11.120        56.042
  HS02004901HS02004770        10.270        19.477         0.195         0.015         0.091
  HS02004876HS02004881        37.320        72.583         0.843         0.062         0.416
  HS02004870HS02004876        28.161        54.630         0.678         0.051         0.338
  HS02004842HS02004848         5.467        10.277         0.115         0.008         0.053
  HS02004837HS02004842        10.074        17.585         0.584         0.067         0.347
  HS02004830HS02004837        65.645       112.714         4.557         0.546         2.785
  HS02004824HS02004830        66.394       113.915         4.629         0.555         2.830
  HS02004817HS02004824        88.210       156.983         5.083         0.584         3.051
  HS02004770HS02004777        39.296        75.467         0.819         0.055         0.377
  HS02004799HS02004480       131.412       245.376         3.680         0.335         1.932
  HS02004792HS02004799       119.088       220.668         3.496         0.327         1.853
  HS02004788HS02004792        68.398       126.862         2.388         0.235         1.309
  HS02004785HS02004788        40.734        77.763         0.969         0.074         0.471
  HS02004777HS02004785        40.061        76.670         0.909         0.067         0.434
  HS02004480HS02004478       165.963       312.617         4.244         0.375         2.196
  HS02004479HS02004480        38.156        72.992         0.885         0.079         0.463
  HS02004862HS02004870        21.016        40.118         0.536         0.043         0.270
  HS02004848HS02004852         8.058        15.280         0.167         0.011         0.077
  HS02004856HS02004862        14.072        27.341         0.284         0.019         0.133
  HS02004852HS02004856         8.065        15.291         0.167         0.011         0.077
  HS02004802HS02004478       102.883       186.887         5.161         0.575         3.054
  HS02004478WS02006287       268.264       498.568         9.362         0.945         5.224
  HS02004817HS02004807        86.890       154.868         4.956         0.568         2.972
  HS02004807HS02004802       103.110       187.241         5.193         0.580         3.075
  YS02001759YS02001757       263.111       476.697         5.312         0.369         2.601
  YS02001762YS02001759       170.113       311.439         3.539         0.250         1.747
  YS02001765YS02001762       171.213       314.211         3.578         0.253         1.769
  YS02001770YS02001767       174.173       321.829         3.487         0.235         1.697
  YS02001774YS02001770       250.926       476.389         4.889         0.325         2.366
  YS02001779YS02001774       250.501       475.514         4.983         0.339         2.430
  YS02001649YS02001757       410.551       735.387         8.415         0.575         4.073
  YS02001767YS02001765       172.966       318.190         3.625         0.257         1.793
  YS02006561YS02001783       955.681      1754.375        20.191         1.514        10.071
  YS02001783YS02001784       955.639      1754.344        20.188         1.513        10.069
  YS02001784YS02001785       963.023      1766.209        20.901         1.603        10.515
  YS02001788YS02001790       963.714      1767.390        20.975         1.612        10.562
  YS02001790YS02001791       964.750      1769.123        21.074         1.624        10.624
  YS02001791YS02001793       964.749      1769.116        21.073         1.624        10.623
  YS02001910YS02001907       330.334       599.547         8.225         0.641         4.248
  YS02001786YS02001788       963.288      1766.690        20.930         1.606        10.534
  YS02001915YS02001910       330.349       599.542         8.180         0.635         4.218
  YS02001918YS02001915       156.666       271.766         4.577         0.427         2.494
  YS02001923YS02001920       136.716       239.921         2.624         0.182         1.272
  YS02001926YS02001923       136.446       239.520         2.587         0.178         1.248
  YS02001929YS02001926       136.236       239.172         2.556         0.174         1.229
  YS02001920YS02001918       156.637       271.796         4.544         0.423         2.472
  YS02001629YS02163301       103.657       183.685         2.174         0.140         1.013
  YS02001619YS02001622       146.409       262.960         3.031         0.197         1.414
  YS02001622YS02001625       145.265       261.158         3.003         0.195         1.401
  YS02001625YS02001629       104.722       185.443         2.197         0.142         1.024
  YS02163301YS02001633       103.373       183.210         2.166         0.140         1.011
  YS02163601YS02164001       362.240       646.591         7.119         0.503         3.405
  YS02164001YS02001641       361.778       645.821         7.100         0.501         3.394
  YS02001641YS02001644       362.023       646.171         7.099         0.501         3.393
  YS02001647YS02001649       490.376       883.251        10.011         0.688         4.815
  YS02006553YS02006556       676.819      1237.281        14.587         1.120         7.350
  YS02006556YS02006558       676.967      1237.554        14.559         1.116         7.330
  YSB6556YSB1171              21.961        42.211         0.452         0.038         0.230
  YS02001907YS02006553       676.807      1237.269        14.599         1.121         7.358
  YS02006558YS02006561       955.634      1754.271        20.190         1.513        10.070
  YS02001633YS02163601       362.913       647.621         7.099         0.499         3.389
  YS02001644YS02001647       494.836       891.783        10.080         0.693         4.847
  YS02001745YS02001748       209.381       385.350         4.668         0.323         2.323
  YS02001748YS02001751       208.126       382.814         4.763         0.338         2.391
  YS02001751YS02001754       207.177       381.264         4.747         0.338         2.384
  YS02001754YS02001757       207.947       382.430         4.910         0.360         2.491
  YS02001882YS02001884         2.541         4.367         0.052         0.004         0.026
  YS02001884YS02001887         6.811        12.059         0.133         0.010         0.066
  YS02001890YS02001895       389.795       721.268         7.195         0.540         3.511
  YS02001895YS02001898       389.677       721.140         7.190         0.539         3.508
  YS02001898YS02001901       389.555       720.948         7.186         0.539         3.506
  YS02001901YS02001904       389.496       720.910         7.195         0.540         3.512
  YS02001904YS02001907       389.839       721.478         7.251         0.548         3.548
  YS02001887YS02001890       390.498       722.278         7.248         0.546         3.543
  YS02001652YS02001649       170.023       308.947         3.488         0.250         1.632
  YS02001655YS02001652       171.018       310.527         3.513         0.251         1.644
  YS02001658YS02001655       170.831       310.189         3.434         0.240         1.591
  YS02001661YS02001658       175.434       318.336         3.529         0.247         1.635
  YS02001664YS02001661       179.928       325.845         3.629         0.254         1.680
  YSB1154YSB6556              21.538        41.537         0.403         0.032         0.199
  YSB1174YSB1171              14.657        28.295         0.298         0.024         0.150
  YSB1171HS02004479           38.113        72.923         0.888         0.080         0.465
  HS02004881HS02006253        42.066        82.022         0.931         0.068         0.459
  YS02001793JiankangQianchi       968.757      1775.866        21.206         1.637        10.697
  YS02001757CaochengTiaoxuchi       373.061       676.687         7.859         0.579         3.878
  WSF200WS02003060           689.490      1261.421        19.247         1.735        10.281
  1                         1881.669      3216.604       121.018        14.250        73.280
  CC-Pump-1                    0.000         0.000         0.000         0.000         0.000
  CC-Pump-2                    0.000         0.000         0.000         0.000         0.000
  JK-Pump-1                  469.195       839.705        11.004         0.877         5.636
  JK-Pump-2                  482.478       908.712         9.588         0.701         4.719
  XR-Pump-1                  374.644       616.022        31.502         3.865        19.475
  XR-Pump-2                  367.604       604.757        30.827         3.780        19.053
  XR-Pump-3                  310.597       513.547        25.355         3.096        15.633
  XR-Pump-4                    0.000         0.000         0.000         0.000         0.000
  

  Analysis begun on:  Wed Jun  2 22:12:42 2021
  Analysis ended on:  Wed Jun  2 22:12:44 2021
  Total elapsed time: 00:00:02