
  EPA STORM WATER MANAGEMENT MODEL - VERSION 5.1 (Build 5.3.0.dev0)
  --------------------------------------------------------------

  
  *********************************************************
  NOTE: The summary statistics displayed in this report are
  based on results found at every computational time step,  
  not just on results from each reporting time step.
  *********************************************************
  
  ****************
  Analysis Options
  ****************
  Flow Units ............... MLD
  Process Models:
    Rainfall/Runoff ........ YES
    RDII ................... NO
    Snowmelt ............... NO
    Groundwater ............ NO
    Flow Routing ........... YES
    Ponding Allowed ........ NO
    Water Quality .......... YES
  Infiltration Method ...... GREEN_AMPT
  Flow Routing Method ...... DYNWAVE
  Surcharge Method ......... EXTRAN
  Starting Date ............ 08/28/2015 08:00:00
  Ending Date .............. 08/28/2015 15:50:00
  Antecedent Dry Days ...... 4.0
  Report Time Step ......... 00:01:00
  Wet Time Step ............ 00:01:00
  Dry Time Step ............ 00:01:00
  Routing Time Step ........ 5.00 sec
  Variable Time Step ....... YES
  Maximum Trials ........... 8
  Number of Threads ........ 1
  Head Tolerance ........... 0.001500 m
  
  
  **************************        Volume         Depth
  Runoff Quantity Continuity     hectare-m            mm
  **************************     ---------       -------
  Total Precipitation ......         0.150         0.533
  Evaporation Loss .........         0.000         0.000
  Infiltration Loss ........         0.090         0.320
  Surface Runoff ...........         0.019         0.068
  Final Storage ............         0.041         0.145
  Continuity Error (%) .....        -0.010
  
  
  **************************           COD         NH3-N            TN            TP            SS
  Runoff Quality Continuity             kg            kg            kg            kg            kg
  **************************    ----------    ----------    ----------    ----------    ----------
  Initial Buildup ..........     13074.240         0.000         0.000         0.000         0.000
  Surface Buildup ..........       683.248         0.000         0.000         0.000         0.000
  Wet Deposition ...........         0.000         0.000         0.000         0.000         0.000
  Sweeping Removal .........         0.000         0.000         0.000         0.000         0.000
  Infiltration Loss ........         0.115         0.000         0.000         0.000         0.000
  BMP Removal ..............         0.000         0.000         0.000         0.000         0.000
  Surface Runoff ...........         0.158         0.000         0.000         0.000         0.000
  Remaining Buildup ........     13757.202         0.000         0.000         0.000         0.000
  Continuity Error (%) .....         0.000         0.000         0.000         0.000         0.000
  
  
  **************************        Volume        Volume
  Flow Routing Continuity        hectare-m      10^6 ltr
  **************************     ---------     ---------
  Dry Weather Inflow .......         0.000         0.000
  Wet Weather Inflow .......         0.019         0.193
  Groundwater Inflow .......         0.000         0.000
  RDII Inflow ..............         0.000         0.000
  External Inflow ..........         1.014        10.135
  External Outflow .........         0.952         9.521
  Flooding Loss ............         0.019         0.190
  Evaporation Loss .........         0.000         0.000
  Exfiltration Loss ........         0.000         0.000
  Initial Stored Volume ....         0.000         0.000
  Final Stored Volume ......         0.061         0.611
  Continuity Error (%) .....         0.053
  
  
  **************************           COD         NH3-N            TN            TP            SS
  Quality Routing Continuity            kg            kg            kg            kg            kg
  **************************    ----------    ----------    ----------    ----------    ----------
  Dry Weather Inflow .......         0.000         0.000         0.000         0.000         0.000
  Wet Weather Inflow .......         0.153         0.000         0.000         0.000         0.000
  Groundwater Inflow .......         0.000         0.000         0.000         0.000         0.000
  RDII Inflow ..............         0.000         0.000         0.000         0.000         0.000
  External Inflow ..........      1692.608         0.000         0.000         0.000         0.000
  External Outflow .........      1563.109         0.000         0.000         0.000         0.000
  Flooding Loss ............        30.056         0.000         0.000         0.000         0.000
  Exfiltration Loss ........         0.000         0.000         0.000         0.000         0.000
  Mass Reacted .............         0.000         0.000         0.000         0.000         0.000
  Initial Stored Mass ......         0.000         0.000         0.000         0.000         0.000
  Final Stored Mass ........        98.966         0.000         0.000         0.000         0.000
  Continuity Error (%) .....         0.037         0.000         0.000         0.000         0.000
  
  
  *************************
  Highest Continuity Errors
  *************************
  Node WS02003099 (1.16%)
  Node WS02003094 (1.11%)
  
  
  ***************************
  Time-Step Critical Elements
  ***************************
  Link WSL2448 (50.90%)
  Link WSL2867 (24.66%)
  Link WSL1477 (11.43%)
  
  
  ********************************
  Highest Flow Instability Indexes
  ********************************
  Link WSL175 (55)
  Link XRpipe (55)
  Link WSL348 (49)
  Link WSL1961 (11)
  Link WSL1964 (7)
  
  
  *************************
  Routing Time Step Summary
  *************************
  Minimum Time Step           :     1.02 sec
  Average Time Step           :     4.31 sec
  Maximum Time Step           :     5.00 sec
  Percent in Steady State     :     0.00
  Average Iterations per Step :     5.94
  Percent Not Converging      :    50.18
  
  
  ***************************
  Subcatchment Runoff Summary
  ***************************
  
  ------------------------------------------------------------------------------------------------------------------------------
                            Total      Total      Total      Total     Imperv       Perv      Total       Total     Peak  Runoff
                           Precip      Runon       Evap      Infil     Runoff     Runoff     Runoff      Runoff   Runoff   Coeff
  Subcatchment                 mm         mm         mm         mm         mm         mm         mm    10^6 ltr      MLD
  ------------------------------------------------------------------------------------------------------------------------------
  1                          0.53       0.28       0.00       0.61       0.18       0.00       0.18        0.00     0.02   0.227
  2                          0.53       0.00       0.00       0.40       0.11       0.00       0.11        0.00     0.04   0.214
  3                          0.53       0.00       0.00       0.40       0.11       0.00       0.11        0.01     0.05   0.206
  4                          0.53       0.00       0.00       0.40       0.12       0.00       0.12        0.00     0.03   0.218
  5                          0.53       0.29       0.00       0.61       0.18       0.00       0.18        0.00     0.03   0.223
  6                          0.53       0.00       0.00       0.40       0.11       0.00       0.11        0.01     0.05   0.207
  7                          0.53       0.00       0.00       0.23       0.07       0.00       0.07        0.11     0.56   0.131
  8                          0.53       0.00       0.00       0.40       0.11       0.00       0.11        0.00     0.05   0.210
  9                          0.53       0.11       0.00       0.48       0.14       0.00       0.14        0.01     0.05   0.212
  17                         0.53       0.00       0.00       0.40       0.11       0.00       0.11        0.00     0.04   0.212
  18                         0.53       0.00       0.00       0.40       0.11       0.00       0.11        0.00     0.05   0.209
  28                         0.53       0.26       0.00       0.59       0.17       0.00       0.17        0.00     0.04   0.218
  29                         0.53       0.09       0.00       0.46       0.14       0.00       0.14        0.00     0.03   0.219
  30                         0.53       0.43       0.00       0.73       0.22       0.00       0.22        0.00     0.02   0.230
  31                         0.53       0.00       0.00       0.40       0.11       0.00       0.11        0.00     0.04   0.213
  33                         0.53       0.00       0.00       0.40       0.12       0.00       0.12        0.00     0.01   0.231
  34                         0.53       0.24       0.00       0.58       0.17       0.00       0.17        0.00     0.03   0.222
  35                         0.53       0.00       0.00       0.40       0.12       0.00       0.12        0.00     0.03   0.216
  36                         0.53       0.20       0.00       0.55       0.15       0.00       0.15        0.01     0.07   0.205
  39                         0.53       0.00       0.00       0.40       0.11       0.00       0.11        0.00     0.04   0.214
  40                         0.53       0.06       0.00       0.44       0.13       0.00       0.13        0.00     0.05   0.212
  41                         0.53       0.00       0.00       0.40       0.12       0.00       0.12        0.00     0.02   0.222
  42                         0.53       0.00       0.00       0.40       0.12       0.00       0.12        0.00     0.03   0.220
  43                         0.53       0.00       0.00       0.40       0.13       0.00       0.13        0.00     0.01   0.236
  44                         0.53       2.51       0.00       2.28       0.72       0.00       0.72        0.00     0.02   0.238
  45                         0.53       0.00       0.00       0.40       0.12       0.00       0.12        0.00     0.01   0.229
  46                         0.53       0.16       0.00       0.52       0.15       0.00       0.15        0.00     0.03   0.222
  47                         0.53       0.00       0.00       0.40       0.12       0.00       0.12        0.00     0.01   0.228
  48                         0.53       0.09       0.00       0.46       0.14       0.00       0.14        0.00     0.02   0.225
  55                         0.53       0.12       0.00       0.49       0.15       0.00       0.15        0.00     0.01   0.232
  56                         0.53       0.17       0.00       0.53       0.16       0.00       0.16        0.00     0.03   0.222
  57                         0.53       0.00       0.00       0.40       0.11       0.00       0.11        0.01     0.05   0.207
  59                         0.53       0.00       0.00       0.40       0.12       0.00       0.12        0.00     0.01   0.231
  60                         0.53       0.28       0.00       0.61       0.19       0.00       0.19        0.00     0.01   0.235
  61                         0.53       0.00       0.00       0.40       0.09       0.00       0.09        0.02     0.13   0.175
  62                         0.53       0.00       0.00       0.40       0.09       0.00       0.09        0.02     0.14   0.173
  64                         0.53       0.00       0.00       0.40       0.12       0.00       0.12        0.00     0.02   0.228
  
  
  ****************************
  Subcatchment Washoff Summary
  ****************************
  
  ------------------------------------------------------------------------------------------
                                 COD         NH3-N            TN            TP            SS
  Subcatchment                    kg            kg            kg            kg            kg
  ------------------------------------------------------------------------------------------
  1                            0.005         0.000         0.000         0.000         0.000
  2                            0.000         0.000         0.000         0.000         0.000
  3                            0.000         0.000         0.000         0.000         0.000
  4                            0.007         0.000         0.000         0.000         0.000
  5                            0.014         0.000         0.000         0.000         0.000
  6                            0.010         0.000         0.000         0.000         0.000
  7                            0.000         0.000         0.000         0.000         0.000
  8                            0.009         0.000         0.000         0.000         0.000
  9                            0.015         0.000         0.000         0.000         0.000
  17                           0.008         0.000         0.000         0.000         0.000
  18                           0.009         0.000         0.000         0.000         0.000
  28                           0.023         0.000         0.000         0.000         0.000
  29                           0.014         0.000         0.000         0.000         0.000
  30                           0.012         0.000         0.000         0.000         0.000
  31                           0.008         0.000         0.000         0.000         0.000
  33                           0.003         0.000         0.000         0.000         0.000
  34                           0.015         0.000         0.000         0.000         0.000
  35                           0.007         0.000         0.000         0.000         0.000
  36                           0.033         0.000         0.000         0.000         0.000
  39                           0.008         0.000         0.000         0.000         0.000
  40                           0.013         0.000         0.000         0.000         0.000
  41                           0.006         0.000         0.000         0.000         0.000
  42                           0.006         0.000         0.000         0.000         0.000
  43                           0.002         0.000         0.000         0.000         0.000
  44                           0.039         0.000         0.000         0.000         0.000
  45                           0.004         0.000         0.000         0.000         0.000
  46                           0.014         0.000         0.000         0.000         0.000
  47                           0.004         0.000         0.000         0.000         0.000
  48                           0.008         0.000         0.000         0.000         0.000
  55                           0.006         0.000         0.000         0.000         0.000
  56                           0.015         0.000         0.000         0.000         0.000
  57                           0.010         0.000         0.000         0.000         0.000
  59                           0.003         0.000         0.000         0.000         0.000
  60                           0.006         0.000         0.000         0.000         0.000
  61                           0.011         0.000         0.000         0.000         0.000
  62                           0.010         0.000         0.000         0.000         0.000
  64                           0.004         0.000         0.000         0.000         0.000
  ------------------------------------------------------------------------------------------
  System                       0.358         0.000         0.000         0.000         0.000
  
  
  ******************
  Node Depth Summary
  ******************
  
  ---------------------------------------------------------------------------------
                                 Average  Maximum  Maximum  Time of Max    Reported
                                   Depth    Depth      HGL   Occurrence   Max Depth
  Node                 Type       Meters   Meters   Meters  days hr:min      Meters
  ---------------------------------------------------------------------------------
  WS01000070           JUNCTION     0.00     0.00     0.00     0  00:00        0.00
  WS01000323           JUNCTION     0.00     0.00     0.00     0  00:00        0.00
  WS01000533           JUNCTION     0.00     0.00     6.86     0  00:00        0.00
  WS01005172           JUNCTION     0.00     0.00     0.00     0  00:00        0.00
  WS01005181           JUNCTION     0.00     0.00     0.00     0  00:00        0.00
  WS01009841           JUNCTION     0.00     0.00     0.00     0  00:00        0.00
  WS02000078           JUNCTION     0.00     0.00     0.00     0  00:00        0.00
  WS02000112           JUNCTION     0.00     0.00     0.00     0  00:00        0.00
  WS02000136           JUNCTION     0.00     0.00     0.00     0  00:00        0.00
  WS02001211           JUNCTION     0.33     0.38     5.22     0  00:29        0.38
  WS02001212           JUNCTION     0.26     0.31     5.11     0  01:04        0.31
  WS02001213           JUNCTION     0.35     0.40     5.10     0  01:05        0.40
  WS02003059           JUNCTION     0.30     0.34     4.99     0  01:05        0.34
  WS02003060           JUNCTION     0.31     0.39     4.94     0  02:06        0.39
  WS02003066           JUNCTION     0.09     0.17     5.47     0  02:05        0.17
  WS02003067           JUNCTION     0.15     0.27     5.59     0  03:01        0.27
  WS02003071           JUNCTION     0.36     0.44     4.84     0  02:07        0.44
  WS02003072           JUNCTION     0.29     0.36     4.73     0  02:08        0.36
  WS02003073           JUNCTION     0.35     0.41     4.65     0  02:08        0.41
  WS02003076           JUNCTION     0.31     0.37     4.60     0  02:08        0.36
  WS02003077           JUNCTION     0.02     0.03     5.04     0  02:00        0.03
  WS02003078           JUNCTION     0.01     0.02     6.92     0  02:00        0.02
  WS02003079           JUNCTION     0.04     0.04     6.95     0  03:00        0.04
  WS02003093           JUNCTION     0.01     0.01     7.35     0  01:44        0.01
  WS02003094           JUNCTION     0.03     0.04     7.26     0  03:00        0.04
  WS02003098           JUNCTION     0.02     0.02     7.19     0  03:00        0.02
  WS02003099           JUNCTION     0.05     0.06     7.10     0  02:00        0.06
  WS02003102           JUNCTION     0.04     0.04     7.07     0  03:00        0.04
  WS02003103           JUNCTION     0.04     0.05     7.02     0  03:00        0.05
  WS02003104           JUNCTION     0.04     0.05     7.01     0  03:00        0.05
  WS02003106           JUNCTION     0.05     0.06     6.99     0  03:00        0.06
  WS02004050           JUNCTION     0.22     0.26     4.48     0  02:09        0.26
  WS02004053           JUNCTION     0.00     0.00     0.00     0  00:00        0.00
  WS02004136           JUNCTION     0.14     0.16     6.89     0  00:09        0.16
  WS02004139           JUNCTION     0.27     0.32     5.28     0  00:52        0.32
  WS02004401           JUNCTION     0.14     0.30     6.30     0  01:59        0.30
  WS02004402           JUNCTION     0.15     0.30     6.26     0  02:00        0.29
  WS02004403           JUNCTION     0.12     0.27     6.20     0  02:00        0.27
  WS02004404           JUNCTION     0.20     0.36     6.21     0  02:01        0.35
  WS02004405           JUNCTION     0.20     0.35     6.19     0  02:02        0.34
  WS02004406           JUNCTION     0.18     0.33     6.16     0  02:01        0.33
  WS02004407           JUNCTION     0.17     0.31     6.11     0  02:02        0.30
  WS02004409           JUNCTION     0.17     0.30     6.07     0  02:03        0.30
  WS02004410           JUNCTION     0.17     0.29     6.01     0  02:03        0.29
  WS02004411           JUNCTION     0.16     0.28     5.96     0  02:04        0.28
  WS02004412           JUNCTION     0.13     0.23     5.87     0  02:04        0.23
  WS02004413           JUNCTION     0.13     0.24     5.71     0  02:05        0.24
  WS02004997           JUNCTION     2.46     2.71     4.32     0  06:00        2.65
  WS02005192           JUNCTION     0.05     0.23     8.10     0  01:50        0.23
  WS02005193           JUNCTION     0.07     0.27     8.09     0  01:50        0.26
  WS02005196           JUNCTION     0.06     0.25     8.10     0  01:49        0.24
  WS02006109           JUNCTION     0.18     0.38     7.00     0  01:57        0.37
  WS02006110           JUNCTION     0.17     0.35     6.95     0  01:58        0.35
  WS02006111           JUNCTION     0.08     0.17     6.75     0  02:53        0.17
  WS02006112           JUNCTION     0.17     0.33     6.45     0  01:58        0.33
  WS02006113           JUNCTION     0.14     0.29     6.88     0  02:52        0.29
  WS02006115           JUNCTION     0.13     0.29     6.39     0  01:58        0.29
  WS02006116           JUNCTION     0.15     0.31     6.35     0  01:59        0.31
  WS02006183           JUNCTION     0.00     0.00     0.00     0  00:00        0.00
  WS02006228           JUNCTION     0.17     0.38     7.03     0  01:56        0.38
  WS02006229           JUNCTION     0.14     0.36     7.05     0  01:56        0.36
  WS02006230           JUNCTION     0.14     0.35     7.10     0  01:56        0.35
  WS02006231           JUNCTION     0.11     0.29     7.19     0  01:55        0.29
  WS02006232           JUNCTION     0.10     0.28     7.31     0  01:55        0.27
  WS02006234           JUNCTION     0.11     0.28     7.44     0  01:54        0.28
  WS02006235           JUNCTION     0.14     0.34     7.51     0  01:54        0.34
  WS02006238           JUNCTION     0.14     0.34     7.52     0  01:54        0.34
  WS02006239           JUNCTION     0.14     0.37     7.58     0  01:54        0.37
  WS02006242           JUNCTION     0.15     0.39     7.69     0  01:53        0.39
  WS02006240           JUNCTION     0.11     0.33     7.62     0  01:53        0.33
  WS02006243           JUNCTION     0.10     0.32     7.74     0  01:52        0.32
  WS02006245           JUNCTION     0.10     0.33     7.82     0  01:52        0.32
  WS02006247           JUNCTION     0.11     0.35     7.86     0  01:52        0.35
  WS02006248           JUNCTION     0.08     0.31     7.90     0  01:51        0.31
  WS02006249           JUNCTION     0.10     0.35     7.95     0  01:51        0.35
  WS02006251           JUNCTION     0.08     0.35     8.02     0  01:51        0.35
  WS02006253           JUNCTION     0.06     0.28     8.08     0  01:50        0.28
  WS02618401           JUNCTION     0.00     0.00     0.00     0  00:00        0.00
  WS8802               JUNCTION     0.00     0.00     4.38     0  00:00        0.00
  WSA1649              JUNCTION     0.00     0.00     0.00     0  00:00        0.00
  WSF200               JUNCTION     0.09     0.16     5.26     0  02:05        0.16
  XR-Inflow            JUNCTION     2.27     2.63     4.44     0  06:00        2.46
  WS02004114           JUNCTION     2.47     2.65     4.25     0  00:54        2.65
  outfall-2            OUTFALL      0.00     0.00     7.00     0  00:00        0.00
  outfall-5            OUTFALL      0.00     0.00     7.67     0  00:00        0.00
  outfall-14           OUTFALL      0.00     0.00     7.66     0  00:00        0.00
  outfall-16           OUTFALL      0.00     0.00     8.39     0  00:00        0.00
  12                   OUTFALL      0.22     0.26     0.26     0  02:10        0.26
  XR-storage           STORAGE      3.56     3.74     4.24     0  00:54        3.74
  CC-storage           STORAGE      3.53     5.02     8.20     0  06:55        5.02
  JK-storage           STORAGE      4.01     4.80     7.80     0  02:48        4.80
  
  
  *******************
  Node Inflow Summary
  *******************
  
  -------------------------------------------------------------------------------------------------
                                  Maximum  Maximum                  Lateral       Total        Flow
                                  Lateral    Total  Time of Max      Inflow      Inflow     Balance
                                   Inflow   Inflow   Occurrence      Volume      Volume       Error
  Node                 Type           MLD      MLD  days hr:min    10^6 ltr    10^6 ltr     Percent
  -------------------------------------------------------------------------------------------------
  WS01000070           JUNCTION      0.00     0.00     0  00:00           0           0       0.000 ltr
  WS01000323           JUNCTION      0.00     0.00     0  00:00           0           0       0.000 ltr
  WS01000533           JUNCTION      0.00     0.00     0  00:00           0           0       0.000 ltr
  WS01005172           JUNCTION      0.00     0.00     0  00:00           0           0       0.000 ltr
  WS01005181           JUNCTION      0.00     0.00     0  00:00           0           0       0.000 ltr
  WS01009841           JUNCTION      0.00     0.00     0  00:00           0           0       0.000 ltr
  WS02000078           JUNCTION      0.00     0.00     0  00:00           0           0       0.000 ltr
  WS02000112           JUNCTION      0.00     0.00     0  00:00           0           0       0.000 ltr
  WS02000136           JUNCTION      0.00     0.00     0  00:00           0           0       0.000 ltr
  WS02001211           JUNCTION      0.25    27.15     0  00:10      0.0783        6.56       0.258
  WS02001212           JUNCTION      0.21    26.84     0  00:12      0.0675        6.61       0.126
  WS02001213           JUNCTION      0.30    26.30     0  01:04      0.0925         6.7       0.166
  WS02003059           JUNCTION      0.23    28.22     0  00:13      0.0731        6.76       0.175
  WS02003060           JUNCTION      0.16    41.91     0  02:05      0.0459        8.85       0.178
  WS02003066           JUNCTION      0.08    20.52     0  02:05      0.0232        2.02       0.053
  WS02003067           JUNCTION      0.26    19.40     0  02:05      0.0709        1.99       0.136
  WS02003071           JUNCTION      0.35    40.01     0  02:06      0.0985        8.93       0.211
  WS02003072           JUNCTION      0.24    40.13     0  02:07      0.0711        8.98       0.122
  WS02003073           JUNCTION      0.07    40.74     0  02:08      0.0171         9.1       0.132
  WS02003076           JUNCTION      0.72    42.03     0  02:08       0.235        9.32       0.089
  WS02003077           JUNCTION      0.04     0.43     0  02:00      0.0103       0.111       0.081
  WS02003078           JUNCTION      0.03     0.39     0  02:00     0.00734         0.1       0.016
  WS02003079           JUNCTION      0.04     0.36     0  03:00     0.00982      0.0933       0.148
  WS02003093           JUNCTION      0.02     0.02     0  01:00     0.00536     0.00536       0.166
  WS02003094           JUNCTION      0.10     0.12     0  03:00      0.0219      0.0273       1.125
  WS02003098           JUNCTION      0.02     0.13     0  03:00     0.00514      0.0321       0.523
  WS02003099           JUNCTION      0.07     0.20     0  02:00      0.0191       0.051       1.175
  WS02003102           JUNCTION      0.07     0.26     0  03:00      0.0121      0.0625       0.593
  WS02003103           JUNCTION      0.02     0.28     0  03:00     0.00419      0.0663       0.421
  WS02003104           JUNCTION      0.02     0.29     0  03:00     0.00529      0.0713       0.323
  WS02003106           JUNCTION      0.05     0.33     0  03:00      0.0127      0.0838       0.438
  WS02004050           JUNCTION      0.72    43.11     0  02:09       0.233        9.55       0.274
  WS02004053           JUNCTION      0.00     0.00     0  00:00           0           0       0.000 ltr
  WS02004136           JUNCTION      0.44    24.80     0  01:00       0.132        6.38       0.033
  WS02004139           JUNCTION      0.38    25.91     0  00:09       0.118         6.5       0.184
  WS02004401           JUNCTION      0.05    19.38     0  01:59      0.0175        1.43       0.159
  WS02004402           JUNCTION      0.22    19.30     0  02:00      0.0604        1.48       0.126
  WS02004403           JUNCTION      0.23    19.33     0  02:00      0.0628        1.54       0.092
  WS02004404           JUNCTION      0.24    19.71     0  02:00      0.0657        1.61       0.114
  WS02004405           JUNCTION      0.10    19.22     0  02:01      0.0251        1.63       0.148
  WS02004406           JUNCTION      0.17    19.19     0  02:01      0.0441        1.67       0.227
  WS02004407           JUNCTION      0.11    18.52     0  02:02      0.0317         1.7       0.210
  WS02004409           JUNCTION      0.24    17.98     0  02:02      0.0649        1.76       0.162
  WS02004410           JUNCTION      0.15    17.86     0  02:03      0.0413         1.8       0.180
  WS02004411           JUNCTION      0.25    17.35     0  02:03       0.068        1.87       0.154
  WS02004412           JUNCTION      0.14    17.95     0  02:04      0.0329         1.9       0.117
  WS02004413           JUNCTION      0.11    18.63     0  02:04       0.032        1.93       0.094
  WS02004997           JUNCTION      0.42    26.21     0  00:01       0.134        6.19       0.610
  WS02005192           JUNCTION      0.15     2.60     0  01:48      0.0365      0.0473       0.870
  WS02005193           JUNCTION      0.09     5.35     0  05:55      0.0272       0.156       0.381
  WS02005196           JUNCTION      0.12     3.83     0  05:56      0.0349       0.103       0.735
  WS02006109           JUNCTION      0.08    19.91     0  01:57      0.0254        1.14       0.243
  WS02006110           JUNCTION      0.08    18.02     0  01:57      0.0249        1.16       0.251
  WS02006111           JUNCTION      0.24    18.41     0  01:58      0.0657        1.28       0.076
  WS02006112           JUNCTION      0.18    18.71     0  01:57      0.0496        1.32       0.157
  WS02006113           JUNCTION      0.20    18.34     0  01:58      0.0535        1.21       0.177
  WS02006115           JUNCTION      0.08    19.38     0  01:58      0.0253        1.35       0.176
  WS02006116           JUNCTION      0.24    19.28     0  01:59      0.0648        1.41       0.159
  WS02006183           JUNCTION      0.00     0.00     0  00:00           0           0       0.000 ltr
  WS02006228           JUNCTION      0.20    19.04     0  02:51      0.0546        1.12       0.143
  WS02006229           JUNCTION      0.13    19.94     0  01:56      0.0368        1.06       0.140
  WS02006230           JUNCTION      0.07    20.45     0  01:55       0.022        1.03       0.129
  WS02006231           JUNCTION      0.13    20.22     0  01:55      0.0376        1.01       0.070
  WS02006232           JUNCTION      0.12    19.99     0  01:55      0.0293       0.969       0.101
  WS02006234           JUNCTION      0.14    19.66     0  01:55      0.0394       0.941       0.091
  WS02006235           JUNCTION      0.14    19.64     0  01:54      0.0407       0.902       0.047
  WS02006238           JUNCTION      0.15    19.41     0  01:54      0.0428       0.862       0.139
  WS02006239           JUNCTION      0.11    19.14     0  01:54      0.0322       0.821       0.183
  WS02006242           JUNCTION      0.08    19.44     0  01:53      0.0242       0.773       0.263
  WS02006240           JUNCTION      0.06    19.15     0  01:53      0.0191        0.79       0.143
  WS02006243           JUNCTION      0.17    19.64     0  01:52      0.0487       0.749       0.115
  WS02006245           JUNCTION      0.07    19.56     0  01:52      0.0215       0.701       0.094
  WS02006247           JUNCTION      0.18    19.04     0  01:52      0.0478       0.681       0.157
  WS02006248           JUNCTION      0.12    18.82     0  01:51      0.0353       0.633       0.045
  WS02006249           JUNCTION      0.19    19.24     0  01:51      0.0516         0.6       0.328
  WS02006251           JUNCTION      0.07    19.33     0  01:50      0.0201       0.549       0.136
  WS02006253           JUNCTION      0.11    19.04     0  01:50      0.0319       0.566      -0.026
  WS02618401           JUNCTION      0.00     0.00     0  00:00           0           0       0.000 ltr
  WS8802               JUNCTION      0.00     0.00     0  00:00           0           0       0.000 ltr
  WSA1649              JUNCTION      0.00     0.00     0  00:00           0           0       0.000 ltr
  WSF200               JUNCTION      0.14    20.69     0  02:05      0.0397        2.05       0.038
  XR-Inflow            JUNCTION     22.21    22.21     0  02:00        6.08        6.08       0.346
  WS02004114           JUNCTION      0.57    30.09     0  00:03       0.173        6.33       0.419
  outfall-2            OUTFALL       0.00     0.00     0  00:00           0           0       0.000 ltr
  outfall-5            OUTFALL       0.00     0.00     0  00:00           0           0       0.000 ltr
  outfall-14           OUTFALL       0.00     0.00     0  00:00           0           0       0.000 ltr
  outfall-16           OUTFALL       0.00     0.00     0  00:00           0           0       0.000 ltr
  12                   OUTFALL       0.00    41.84     0  02:10           0        9.52       0.000
  XR-storage           STORAGE       0.00    27.59     0  00:01           0         6.3       0.381
  CC-storage           STORAGE       1.98     1.98     0  02:00       0.518       0.518       0.003
  JK-storage           STORAGE       1.25     1.25     0  02:00       0.326       0.326       0.004
  
  
  **********************
  Node Surcharge Summary
  **********************
  
  Surcharging occurs when water rises above the top of the highest conduit.
  ---------------------------------------------------------------------
                                               Max. Height   Min. Depth
                                   Hours       Above Crown    Below Rim
  Node                 Type      Surcharged         Meters       Meters
  ---------------------------------------------------------------------
  WS01000070           JUNCTION        7.83          0.000        0.000
  WS01000323           JUNCTION        7.83          0.000        0.000
  WS01000533           JUNCTION        7.83          0.000        2.147
  WS01005172           JUNCTION        7.83          0.000        0.000
  WS01005181           JUNCTION        7.83          0.000        0.000
  WS01009841           JUNCTION        7.83          0.000        0.000
  WS02000078           JUNCTION        7.83          0.000        0.000
  WS02000112           JUNCTION        7.83          0.000        0.000
  WS02000136           JUNCTION        7.83          0.000        0.000
  WS02004053           JUNCTION        7.83          0.000        0.000
  WS02004997           JUNCTION        7.71          1.807        4.193
  WS02006183           JUNCTION        7.83          0.000        0.000
  WS02618401           JUNCTION        7.83          0.000        0.000
  WS8802               JUNCTION        7.83          0.000        4.942
  WSA1649              JUNCTION        7.83          0.000        0.000
  XR-Inflow            JUNCTION        7.71          1.726        3.924
  WS02004114           JUNCTION        7.72          1.753        4.762
  XR-storage           STORAGE         7.79          2.842        3.978
  
  
  *********************
  Node Flooding Summary
  *********************
  
  Flooding refers to all water that overflows a node, whether it ponds or not.
  --------------------------------------------------------------------------
                                                             Total   Maximum
                                 Maximum   Time of Max       Flood    Ponded
                        Hours       Rate    Occurrence      Volume     Depth
  Node                 Flooded       MLD   days hr:min    10^6 ltr    Meters
  --------------------------------------------------------------------------
  JK-storage              5.02      1.13      0  03:00       0.190     0.000
  
  
  **********************
  Storage Volume Summary
  **********************
  
  --------------------------------------------------------------------------------------------------
                         Average     Avg  Evap Exfil       Maximum     Max    Time of Max    Maximum
                          Volume    Pcnt  Pcnt  Pcnt        Volume    Pcnt     Occurrence    Outflow
  Storage Unit           1000 m3    Full  Loss  Loss       1000 m3    Full    days hr:min        MLD
  --------------------------------------------------------------------------------------------------
  XR-storage               0.029      46     0     0         0.030      48       0  00:54      24.36
  CC-storage               0.100      63     0     0         0.142      89       0  06:55      17.28
  JK-storage               0.113      84     0     0         0.136     100       0  02:48       0.00
  
  
  ***********************
  Outfall Loading Summary
  ***********************
  
  ---------------------------------------------------------------------------------------------------------------------------------
                         Flow       Avg       Max       Total         Total         Total         Total         Total         Total
                         Freq      Flow      Flow      Volume           COD         NH3-N            TN            TP            SS
  Outfall Node           Pcnt       MLD       MLD    10^6 ltr            kg            kg            kg            kg            kg
  ---------------------------------------------------------------------------------------------------------------------------------
  outfall-2              0.00      0.00      0.00       0.000         0.000         0.000         0.000         0.000         0.000
  outfall-5              0.00      0.00      0.00       0.000         0.000         0.000         0.000         0.000         0.000
  outfall-14             0.00      0.00      0.00       0.000         0.000         0.000         0.000         0.000         0.000
  outfall-16             0.00      0.00      0.00       0.000         0.000         0.000         0.000         0.000         0.000
  12                    99.98     29.34     41.84       9.521      1563.196         0.000         0.000         0.000         0.000
  ---------------------------------------------------------------------------------------------------------------------------------
  System                20.00     29.34     41.84       9.521      1563.196         0.000         0.000         0.000         0.000
  
  
  ********************
  Link Flow Summary
  ********************
  
  -----------------------------------------------------------------------------
                                 Maximum  Time of Max   Maximum    Max/    Max/
                                  |Flow|   Occurrence   |Veloc|    Full    Full
  Link                 Type          MLD  days hr:min     m/sec    Flow   Depth
  -----------------------------------------------------------------------------
  WSL49                CONDUIT     41.31     0  02:08      1.52    0.51    0.32
  WSL1465              CONDUIT     27.86     0  00:14      1.65    0.25    0.35
  WSL1472              CONDUIT     39.91     0  02:07      1.41    0.46    0.33
  WSL1475              CONDUIT     42.39     0  02:09      1.94    0.45    0.22
  WSL1476              CONDUIT      0.43     0  02:00      0.45    0.00    0.27
  WSL1477              CONDUIT      0.36     0  03:00      0.81    0.01    0.05
  WSL1490              CONDUIT     26.64     0  00:12      1.38    0.43    0.34
  WSL1491              CONDUIT     25.99     0  01:04      1.44    0.15    0.35
  WSL1492              CONDUIT     27.99     0  00:13      1.38    0.43    0.37
  WSL1507              CONDUIT      0.02     0  01:44      0.13    0.00    0.03
  WSL1508              CONDUIT      0.12     0  03:00      0.20    0.00    0.04
  WSL1512              CONDUIT      0.13     0  03:00      0.15    0.00    0.04
  WSL1513              CONDUIT      0.20     0  02:00      0.18    0.01    0.06
  WSL1515              CONDUIT     20.45     0  02:05      1.73    0.20    0.18
  WSL1516              CONDUIT      0.39     0  02:00      1.37    0.00    0.04
  WSL1518              CONDUIT      0.26     0  03:00      0.26    0.01    0.06
  WSL1519              CONDUIT      0.29     0  03:00      0.24    0.01    0.07
  WSL1521              CONDUIT      0.33     0  03:00      0.30    0.01    0.06
  WSL1543              CONDUIT      0.28     0  03:00      0.24    0.01    0.06
  WSL1961              CONDUIT     25.53     0  00:09      3.05    0.05    0.24
  WSL1964              CONDUIT     26.90     0  00:10      1.38    0.15    0.29
  WSL2010              CONDUIT     19.13     0  02:00      1.21    0.24    0.28
  WSL2011              CONDUIT     19.50     0  02:00      1.13    0.13    0.31
  WSL2012              CONDUIT     19.13     0  02:01      0.94    0.29    0.35
  WSL2013              CONDUIT     19.05     0  02:01      1.00    0.47    0.34
  WSL2014              CONDUIT     18.42     0  02:02      1.02    0.29    0.31
  WSL2015              CONDUIT     17.77     0  02:02      1.05    0.24    0.30
  WSL2016              CONDUIT     17.73     0  02:03      1.07    0.20    0.29
  WSL2017              CONDUIT     17.14     0  02:03      1.09    0.21    0.28
  WSL2018              CONDUIT     18.53     0  02:04      1.55    0.11    0.23
  WSL2019              CONDUIT     19.17     0  02:05      1.47    0.11    0.25
  WSL2028              CONDUIT     19.10     0  02:00      1.13    0.20    0.30
  WSL2029              CONDUIT     17.83     0  02:04      1.33    0.23    0.25
  WSL2038              CONDUIT      2.50     0  05:56      0.48    0.12    0.37
  WSL2039              CONDUIT      5.27     0  05:55      1.16    0.27    0.44
  WSL2041              CONDUIT      3.74     0  05:56      0.66    0.18    0.41
  WSL2294              CONDUIT     17.94     0  01:57      1.01    0.60    0.46
  WSL2295              CONDUIT     18.15     0  01:58      1.13    0.82    0.40
  WSL2296              CONDUIT     18.54     0  01:57      1.68    0.10    0.32
  WSL2297              CONDUIT     19.29     0  01:58      1.11    0.37    0.31
  WSL2298              CONDUIT     18.18     0  01:58      1.76    0.84    0.29
  WSL2301              CONDUIT     19.05     0  01:59      1.14    0.18    0.30
  WSL2302              CONDUIT     19.33     0  01:59      1.12    0.24    0.30
  WSL2441              CONDUIT     19.83     0  01:57      1.11    0.51    0.47
  WSL2442              CONDUIT     19.81     0  01:56      1.27    0.51    0.50
  WSL2443              CONDUIT     20.38     0  01:55      1.43    0.32    0.45
  WSL2444              CONDUIT     20.09     0  01:55      1.61    0.32    0.40
  WSL2446              CONDUIT     19.88     0  01:55      1.61    0.34    0.40
  WSL2447              CONDUIT     19.52     0  01:55      1.39    1.00    0.44
  WSL2448              CONDUIT     19.50     0  01:54      1.23    0.55    0.48
  WSL2449              CONDUIT     19.26     0  01:54      1.14    0.67    0.51
  WSL2450              CONDUIT     19.03     0  01:54      1.19    0.40    0.50
  WSL2451              CONDUIT     19.09     0  01:53      1.15    1.24    0.51
  WSL2452              CONDUIT     19.36     0  01:53      1.25    0.37    0.50
  WSL2454              CONDUIT     19.47     0  01:52      1.50    0.45    0.45
  WSL2478              CONDUIT     19.49     0  01:52      1.31    0.69    0.48
  WSL2479              CONDUIT     18.87     0  01:52      1.24    0.36    0.47
  WSL2480              CONDUIT     18.70     0  01:51      1.23    0.87    0.47
  WSL2482              CONDUIT     19.06     0  01:51      1.21    0.50    0.49
  WSL2484              CONDUIT     19.26     0  01:50      1.90    0.27    0.44
  WSL2493              CONDUIT     18.85     0  02:51      1.15    0.32    0.46
  WSL2867              CONDUIT     20.57     0  02:05      2.53    0.04    0.14
  WSL2868              CONDUIT     20.10     0  02:05      1.30    0.04    0.23
  WSL348               CONDUIT     25.79     0  00:01      1.86    0.24    1.00
  WSL175               CONDUIT     27.70     0  00:01      2.30    0.93    1.00
  WSL1467              CONDUIT     39.70     0  02:06      1.35    0.21    0.34
  WSL1473              CONDUIT     40.28     0  02:08      1.50    0.17    0.32
  XRpipe               CONDUIT     27.59     0  00:01      2.53    0.07    1.00
  8                    CONDUIT      0.00     0  00:00      0.00    0.00    0.00
  19                   CONDUIT      0.00     0  00:00      0.00    0.00    0.00
  17                   CONDUIT      0.00     0  00:00      0.00    0.00    0.00
  4                    CONDUIT      0.00     0  00:00      0.00    0.00    0.00
  2                    CONDUIT     41.84     0  02:10      2.94    0.15    0.26
  XR-Pump-1            PUMP         8.12     0  00:08              1.00
  XR-Pump-3            PUMP         8.12     0  00:09              1.00
  XR-Pump-2            PUMP         8.12     0  00:09              1.00
  XR-Pump-4            PUMP         0.00     0  00:00              0.00
  CC-Pump-1            PUMP        17.28     0  01:47              1.00
  CC-Pump-2            PUMP         0.00     0  00:00              0.00
  JK-Pump-1            PUMP         0.00     0  00:00              0.00
  JK-Pump-2            PUMP         0.00     0  00:00              0.00
  
  
  ***************************
  Flow Classification Summary
  ***************************
  
  -------------------------------------------------------------------------------------
                      Adjusted    ---------- Fraction of Time in Flow Class ---------- 
                       /Actual         Up    Down  Sub   Sup   Up    Down  Norm  Inlet 
  Conduit               Length    Dry  Dry   Dry   Crit  Crit  Crit  Crit  Ltd   Ctrl  
  -------------------------------------------------------------------------------------
  WSL49                   1.00   0.00  0.00  0.00  1.00  0.00  0.00  0.00  0.00  0.00
  WSL1465                 1.00   0.00  0.00  0.00  1.00  0.00  0.00  0.00  0.10  0.00
  WSL1472                 1.00   0.00  0.00  0.00  1.00  0.00  0.00  0.00  0.00  0.00
  WSL1475                 1.00   0.00  0.00  0.00  0.03  0.97  0.00  0.00  0.00  0.00
  WSL1476                 1.00   0.00  0.00  0.00  1.00  0.00  0.00  0.00  1.00  0.00
  WSL1477                 1.00   0.00  0.00  0.00  0.00  1.00  0.00  0.00  0.00  0.00
  WSL1490                 1.00   0.00  0.00  0.00  1.00  0.00  0.00  0.00  0.00  0.00
  WSL1491                 1.00   0.00  0.00  0.00  1.00  0.00  0.00  0.00  0.02  0.00
  WSL1492                 1.00   0.00  0.00  0.00  1.00  0.00  0.00  0.00  0.00  0.00
  WSL1507                 1.00   0.00  0.00  0.00  1.00  0.00  0.00  0.00  1.00  0.00
  WSL1508                 1.00   0.00  0.00  0.00  1.00  0.00  0.00  0.00  0.00  0.00
  WSL1512                 1.00   0.00  0.00  0.00  1.00  0.00  0.00  0.00  1.00  0.00
  WSL1513                 1.00   0.00  0.00  0.00  1.00  0.00  0.00  0.00  0.00  0.00
  WSL1515                 1.00   0.00  0.00  0.00  0.04  0.96  0.00  0.00  0.00  0.00
  WSL1516                 1.00   0.00  0.00  0.00  0.00  1.00  0.00  0.00  1.00  0.00
  WSL1518                 1.00   0.00  0.00  0.00  1.00  0.00  0.00  0.00  1.00  0.00
  WSL1519                 1.00   0.00  0.00  0.00  1.00  0.00  0.00  0.00  1.00  0.00
  WSL1521                 1.00   0.00  0.00  0.00  1.00  0.00  0.00  0.00  0.01  0.00
  WSL1543                 1.00   0.00  0.00  0.00  1.00  0.00  0.00  0.00  0.01  0.00
  WSL1961                 1.00   0.00  0.00  0.00  0.01  0.99  0.00  0.00  0.94  0.00
  WSL1964                 1.00   0.00  0.00  0.00  1.00  0.00  0.00  0.00  0.21  0.00
  WSL2010                 1.00   0.00  0.00  0.00  1.00  0.00  0.00  0.00  0.00  0.00
  WSL2011                 1.00   0.00  0.00  0.00  1.00  0.00  0.00  0.00  0.65  0.00
  WSL2012                 1.00   0.00  0.00  0.00  1.00  0.00  0.00  0.00  0.00  0.00
  WSL2013                 1.00   0.00  0.00  0.00  1.00  0.00  0.00  0.00  0.00  0.00
  WSL2014                 1.00   0.00  0.00  0.00  1.00  0.00  0.00  0.00  0.00  0.00
  WSL2015                 1.00   0.00  0.00  0.00  1.00  0.00  0.00  0.00  0.01  0.00
  WSL2016                 1.00   0.00  0.00  0.00  1.00  0.00  0.00  0.00  0.14  0.00
  WSL2017                 1.00   0.00  0.00  0.00  1.00  0.00  0.00  0.00  0.02  0.00
  WSL2018                 1.00   0.00  0.00  0.00  0.01  0.99  0.00  0.00  0.72  0.00
  WSL2019                 1.00   0.00  0.00  0.00  0.33  0.67  0.00  0.00  0.06  0.00
  WSL2028                 1.00   0.00  0.00  0.00  1.00  0.00  0.00  0.00  0.07  0.00
  WSL2029                 1.00   0.00  0.00  0.00  0.90  0.10  0.00  0.00  0.00  0.00
  WSL2038                 1.00   0.00  0.00  0.00  1.00  0.00  0.00  0.00  0.21  0.00
  WSL2039                 1.00   0.00  0.00  0.00  0.97  0.03  0.00  0.00  0.00  0.00
  WSL2041                 1.00   0.00  0.00  0.00  1.00  0.00  0.00  0.00  0.91  0.00
  WSL2294                 1.00   0.00  0.00  0.00  1.00  0.00  0.00  0.00  0.01  0.00
  WSL2295                 1.00   0.00  0.00  0.00  1.00  0.00  0.00  0.00  0.00  0.00
  WSL2296                 1.00   0.00  0.00  0.00  0.86  0.14  0.00  0.00  0.98  0.00
  WSL2297                 1.00   0.00  0.00  0.00  1.00  0.00  0.00  0.00  0.00  0.00
  WSL2298                 1.00   0.00  0.00  0.00  0.07  0.93  0.00  0.00  0.00  0.00
  WSL2301                 1.00   0.00  0.00  0.00  1.00  0.00  0.00  0.00  0.56  0.00
  WSL2302                 1.00   0.00  0.00  0.00  1.00  0.00  0.00  0.00  0.00  0.00
  WSL2441                 1.00   0.00  0.00  0.00  1.00  0.00  0.00  0.00  0.01  0.00
  WSL2442                 1.00   0.00  0.00  0.00  1.00  0.00  0.00  0.00  0.79  0.00
  WSL2443                 1.00   0.00  0.00  0.00  0.98  0.02  0.00  0.00  0.93  0.00
  WSL2444                 1.00   0.00  0.00  0.00  0.01  0.99  0.00  0.00  0.90  0.00
  WSL2446                 1.00   0.00  0.00  0.00  0.02  0.98  0.00  0.00  0.28  0.00
  WSL2447                 1.00   0.00  0.00  0.00  1.00  0.00  0.00  0.00  0.00  0.00
  WSL2448                 1.00   0.00  0.00  0.00  1.00  0.00  0.00  0.00  0.02  0.00
  WSL2449                 1.00   0.00  0.00  0.00  1.00  0.00  0.00  0.00  0.05  0.00
  WSL2450                 1.00   0.00  0.00  0.00  1.00  0.00  0.00  0.00  0.90  0.00
  WSL2451                 1.00   0.00  0.00  0.00  1.00  0.00  0.00  0.00  0.00  0.00
  WSL2452                 1.00   0.00  0.00  0.00  1.00  0.00  0.00  0.00  0.93  0.00
  WSL2454                 1.00   0.00  0.00  0.00  0.99  0.01  0.00  0.00  0.12  0.00
  WSL2478                 1.00   0.00  0.00  0.00  1.00  0.00  0.00  0.00  0.00  0.00
  WSL2479                 1.00   0.00  0.00  0.00  1.00  0.00  0.00  0.00  0.91  0.00
  WSL2480                 1.00   0.00  0.00  0.00  1.00  0.00  0.00  0.00  0.00  0.00
  WSL2482                 1.00   0.00  0.00  0.00  1.00  0.00  0.00  0.00  0.93  0.00
  WSL2484                 1.00   0.00  0.00  0.00  0.99  0.01  0.00  0.00  0.92  0.00
  WSL2493                 1.00   0.00  0.00  0.00  1.00  0.00  0.00  0.00  0.02  0.00
  WSL2867                 1.00   0.00  0.00  0.00  0.00  1.00  0.00  0.00  0.19  0.00
  WSL2868                 1.00   0.00  0.00  0.00  0.99  0.01  0.00  0.00  1.00  0.00
  WSL348                  1.00   0.00  0.00  0.00  1.00  0.00  0.00  0.00  0.00  0.00
  WSL175                  1.00   0.00  0.00  0.00  1.00  0.00  0.00  0.00  0.00  0.00
  WSL1467                 1.00   0.00  0.00  0.00  1.00  0.00  0.00  0.00  0.05  0.00
  WSL1473                 1.00   0.00  0.00  0.00  1.00  0.00  0.00  0.00  0.03  0.00
  XRpipe                  1.00   0.00  0.00  0.00  1.00  0.00  0.00  0.00  0.00  0.00
  8                       1.00   1.00  0.00  0.00  0.00  0.00  0.00  0.00  0.00  0.00
  19                      1.00   1.00  0.00  0.00  0.00  0.00  0.00  0.00  0.00  0.00
  17                      1.00   1.00  0.00  0.00  0.00  0.00  0.00  0.00  0.00  0.00
  4                       1.00   1.00  0.00  0.00  0.00  0.00  0.00  0.00  0.00  0.00
  2                       1.00   0.00  0.00  0.00  0.00  1.00  0.00  0.00  0.29  0.00
  
  
  *************************
  Conduit Surcharge Summary
  *************************
  
  ----------------------------------------------------------------------------
                                                           Hours        Hours 
                         --------- Hours Full --------   Above Full   Capacity
  Conduit                Both Ends  Upstream  Dnstream   Normal Flow   Limited
  ----------------------------------------------------------------------------
  WSL2447                     0.01      0.01      0.01      0.01         0.01
  WSL2451                     0.01      0.01      0.01      0.23         0.01
  WSL348                      7.71      7.71      7.71      0.01         0.01
  WSL175                      7.71      7.71      7.72      0.01         0.16
  XRpipe                      7.72      7.72      7.79      0.01         0.01
  
  
  ***************
  Pumping Summary
  ***************
  
  ---------------------------------------------------------------------------------------------------------
                                                  Min       Avg       Max     Total     Power    % Time Off
                        Percent   Number of      Flow      Flow      Flow    Volume     Usage    Pump Curve
  Pump                 Utilized   Start-Ups       MLD       MLD       MLD  10^6 ltr     Kw-hr    Low   High
  ---------------------------------------------------------------------------------------------------------
  XR-Pump-1               98.16           1      0.00      8.12      8.12     2.601     19.64    0.0    0.0
  XR-Pump-3               41.13         142      0.00      8.12      8.12     1.090      8.20    0.0    0.0
  XR-Pump-2               96.56           9      0.00      8.12      8.12     2.559     19.30    0.0    0.0
  XR-Pump-4                0.00           0      0.00      0.00      0.00     0.000      0.00    0.0    0.0
  CC-Pump-1                7.12           6      0.00     17.28     17.28     0.402      1.02    0.0    0.0
  CC-Pump-2                0.00           0      0.00      0.00      0.00     0.000      0.00    0.0    0.0
  JK-Pump-1                0.00           0      0.00      0.00      0.00     0.000      0.00    0.0    0.0
  JK-Pump-2                0.00           0      0.00      0.00      0.00     0.000      0.00    0.0    0.0
  
  
  ***************************
  Link Pollutant Load Summary
  ***************************
  
  ------------------------------------------------------------------------------------------
                                 COD         NH3-N            TN            TP            SS
  Link                            kg            kg            kg            kg            kg
  ------------------------------------------------------------------------------------------
  WSL49                     1490.779         0.000         0.000         0.000         0.000
  WSL1465                   1109.502         0.000         0.000         0.000         0.000
  WSL1472                   1462.754         0.000         0.000         0.000         0.000
  WSL1475                   1528.479         0.000         0.000         0.000         0.000
  WSL1476                     16.923         0.000         0.000         0.000         0.000
  WSL1477                     13.950         0.000         0.000         0.000         0.000
  WSL1490                   1075.662         0.000         0.000         0.000         0.000
  WSL1491                   1085.564         0.000         0.000         0.000         0.000
  WSL1492                   1099.228         0.000         0.000         0.000         0.000
  WSL1507                      0.894         0.000         0.000         0.000         0.000
  WSL1508                      3.661         0.000         0.000         0.000         0.000
  WSL1512                      4.497         0.000         0.000         0.000         0.000
  WSL1513                      7.593         0.000         0.000         0.000         0.000
  WSL1515                    324.671         0.000         0.000         0.000         0.000
  WSL1516                     15.173         0.000         0.000         0.000         0.000
  WSL1518                      8.764         0.000         0.000         0.000         0.000
  WSL1519                     10.269         0.000         0.000         0.000         0.000
  WSL1521                     12.334         0.000         0.000         0.000         0.000
  WSL1543                      9.418         0.000         0.000         0.000         0.000
  WSL1961                   1047.607         0.000         0.000         0.000         0.000
  WSL1964                   1065.333         0.000         0.000         0.000         0.000
  WSL2010                    241.871         0.000         0.000         0.000         0.000
  WSL2011                    252.130         0.000         0.000         0.000         0.000
  WSL2012                    262.798         0.000         0.000         0.000         0.000
  WSL2013                    266.089         0.000         0.000         0.000         0.000
  WSL2014                    272.100         0.000         0.000         0.000         0.000
  WSL2015                    276.818         0.000         0.000         0.000         0.000
  WSL2016                    286.698         0.000         0.000         0.000         0.000
  WSL2017                    293.067         0.000         0.000         0.000         0.000
  WSL2018                    308.185         0.000         0.000         0.000         0.000
  WSL2019                    313.227         0.000         0.000         0.000         0.000
  WSL2028                    232.079         0.000         0.000         0.000         0.000
  WSL2029                    303.954         0.000         0.000         0.000         0.000
  WSL2038                      8.572         0.000         0.000         0.000         0.000
  WSL2039                     27.368         0.000         0.000         0.000         0.000
  WSL2041                     17.630         0.000         0.000         0.000         0.000
  WSL2294                    185.130         0.000         0.000         0.000         0.000
  WSL2295                    188.801         0.000         0.000         0.000         0.000
  WSL2296                    207.268         0.000         0.000         0.000         0.000
  WSL2297                    215.210         0.000         0.000         0.000         0.000
  WSL2298                    196.450         0.000         0.000         0.000         0.000
  WSL2301                    219.059         0.000         0.000         0.000         0.000
  WSL2302                    229.517         0.000         0.000         0.000         0.000
  WSL2441                    181.351         0.000         0.000         0.000         0.000
  WSL2442                    167.014         0.000         0.000         0.000         0.000
  WSL2443                    163.581         0.000         0.000         0.000         0.000
  WSL2444                    157.441         0.000         0.000         0.000         0.000
  WSL2446                    153.367         0.000         0.000         0.000         0.000
  WSL2447                    146.956         0.000         0.000         0.000         0.000
  WSL2448                    140.265         0.000         0.000         0.000         0.000
  WSL2449                    133.355         0.000         0.000         0.000         0.000
  WSL2450                    128.305         0.000         0.000         0.000         0.000
  WSL2451                    125.353         0.000         0.000         0.000         0.000
  WSL2452                    121.668         0.000         0.000         0.000         0.000
  WSL2454                    113.706         0.000         0.000         0.000         0.000
  WSL2478                    110.237         0.000         0.000         0.000         0.000
  WSL2479                    102.813         0.000         0.000         0.000         0.000
  WSL2480                     96.977         0.000         0.000         0.000         0.000
  WSL2482                     88.674         0.000         0.000         0.000         0.000
  WSL2484                     85.629         0.000         0.000         0.000         0.000
  WSL2493                    172.909         0.000         0.000         0.000         0.000
  WSL2867                    328.305         0.000         0.000         0.000         0.000
  WSL2868                    334.760         0.000         0.000         0.000         0.000
  WSL348                     993.564         0.000         0.000         0.000         0.000
  WSL175                    1009.759         0.000         0.000         0.000         0.000
  WSL1467                   1449.380         0.000         0.000         0.000         0.000
  WSL1473                   1472.841         0.000         0.000         0.000         0.000
  XRpipe                    1034.966         0.000         0.000         0.000         0.000
  8                            0.000         0.000         0.000         0.000         0.000
  19                           0.000         0.000         0.000         0.000         0.000
  17                           0.000         0.000         0.000         0.000         0.000
  4                            0.000         0.000         0.000         0.000         0.000
  2                         1563.196         0.000         0.000         0.000         0.000
  XR-Pump-1                  426.462         0.000         0.000         0.000         0.000
  XR-Pump-3                  179.818         0.000         0.000         0.000         0.000
  XR-Pump-2                  419.550         0.000         0.000         0.000         0.000
  XR-Pump-4                    0.000         0.000         0.000         0.000         0.000
  CC-Pump-1                   64.882         0.000         0.000         0.000         0.000
  CC-Pump-2                    0.000         0.000         0.000         0.000         0.000
  JK-Pump-1                    0.000         0.000         0.000         0.000         0.000
  JK-Pump-2                    0.000         0.000         0.000         0.000         0.000
  

  Analysis begun on:  Wed Feb  3 14:31:04 2021
  Analysis ended on:  Wed Feb  3 14:31:05 2021
  Total elapsed time: 00:00:01