
  EPA STORM WATER MANAGEMENT MODEL - VERSION 5.1 (Build 5.3.0.dev0)
  --------------------------------------------------------------

  
  *********************************************************
  NOTE: The summary statistics displayed in this report are
  based on results found at every computational time step,  
  not just on results from each reporting time step.
  *********************************************************
  
  ****************
  Analysis Options
  ****************
  Flow Units ............... CMS
  Process Models:
    Rainfall/Runoff ........ YES
    RDII ................... NO
    Snowmelt ............... NO
    Groundwater ............ NO
    Flow Routing ........... YES
    Ponding Allowed ........ YES
    Water Quality .......... NO
  Infiltration Method ...... HORTON
  Flow Routing Method ...... DYNWAVE
  Surcharge Method ......... EXTRAN
  Starting Date ............ 08/28/2015 08:00:00
  Ending Date .............. 08/28/2015 15:50:00
  Antecedent Dry Days ...... 0.0
  Report Time Step ......... 00:01:00
  Wet Time Step ............ 00:01:00
  Dry Time Step ............ 00:01:00
  Routing Time Step ........ 5.00 sec
  Variable Time Step ....... YES
  Maximum Trials ........... 8
  Number of Threads ........ 1
  Head Tolerance ........... 0.001500 m
  
  
  **************************        Volume         Depth
  Runoff Quantity Continuity     hectare-m            mm
  **************************     ---------       -------
  Total Precipitation ......         1.165         6.464
  Evaporation Loss .........         0.000         0.000
  Infiltration Loss ........         0.000         0.000
  Surface Runoff ...........         1.142         6.340
  Final Storage ............         0.023         0.125
  Continuity Error (%) .....        -0.007
  
  
  **************************        Volume        Volume
  Flow Routing Continuity        hectare-m      10^6 ltr
  **************************     ---------     ---------
  Dry Weather Inflow .......         0.396         3.955
  Wet Weather Inflow .......         1.142        11.424
  Groundwater Inflow .......         0.000         0.000
  RDII Inflow ..............         0.000         0.000
  External Inflow ..........         0.000         0.000
  External Outflow .........         0.539         5.385
  Flooding Loss ............         0.112         1.122
  Evaporation Loss .........         0.000         0.000
  Exfiltration Loss ........         0.000         0.000
  Initial Stored Volume ....         0.000         0.000
  Final Stored Volume ......         0.692         6.923
  Continuity Error (%) .....        12.675
  
  
  *************************
  Highest Continuity Errors
  *************************
  Node T2 (33.98%)
  Node T3 (26.23%)
  Node T5 (23.75%)
  Node T4 (23.15%)
  Node T6 (19.67%)
  
  
  ***************************
  Time-Step Critical Elements
  ***************************
  None
  
  
  ********************************
  Highest Flow Instability Indexes
  ********************************
  All links are stable.
  
  
  *************************
  Routing Time Step Summary
  *************************
  Minimum Time Step           :     4.50 sec
  Average Time Step           :     5.00 sec
  Maximum Time Step           :     5.00 sec
  Percent in Steady State     :     0.00
  Average Iterations per Step :     2.03
  Percent Not Converging      :     0.09
  
  
  ***************************
  Subcatchment Runoff Summary
  ***************************
  
  ------------------------------------------------------------------------------------------------------------------------------
                            Total      Total      Total      Total     Imperv       Perv      Total       Total     Peak  Runoff
                           Precip      Runon       Evap      Infil     Runoff     Runoff     Runoff      Runoff   Runoff   Coeff
  Subcatchment                 mm         mm         mm         mm         mm         mm         mm    10^6 ltr      CMS
  ------------------------------------------------------------------------------------------------------------------------------
  SC01                       6.46       0.00       0.00       0.00       6.38       0.00       6.38        2.11     0.47   0.987
  SC02                       6.46       0.00       0.00       0.00       6.38       0.00       6.38        1.45     0.32   0.986
  SC03                       6.46       0.00       0.00       0.00       6.40       0.00       6.40        1.15     0.28   0.989
  SC04                       6.46       0.00       0.00       0.00       6.28       0.00       6.28        0.43     0.07   0.972
  SC05                       6.46       0.00       0.00       0.00       6.37       0.00       6.37        0.99     0.22   0.986
  SC06                       6.46       0.00       0.00       0.00       6.23       0.00       6.23        2.03     0.32   0.964
  SC07                       6.46       0.00       0.00       0.00       6.28       0.00       6.28        0.30     0.05   0.972
  SC08                       6.46       0.00       0.00       0.00       6.35       0.00       6.35        1.78     0.36   0.983
  SC09                       6.46       0.00       0.00       0.00       6.33       0.00       6.33        0.44     0.08   0.979
  SC010                      6.46       0.00       0.00       0.00       6.36       0.00       6.36        0.75     0.15   0.983
  
  
  ******************
  Node Depth Summary
  ******************
  
  ---------------------------------------------------------------------------------
                                 Average  Maximum  Maximum  Time of Max    Reported
                                   Depth    Depth      HGL   Occurrence   Max Depth
  Node                 Type       Meters   Meters   Meters  days hr:min      Meters
  ---------------------------------------------------------------------------------
  J1                   JUNCTION     0.07     0.16    34.16     0  01:49        0.16
  J3                   JUNCTION     0.09     0.11    18.11     0  05:04        0.11
  CSO7                 JUNCTION     0.10     0.22    34.22     0  02:01        0.22
  J5                   JUNCTION     0.06     0.13    32.13     0  02:01        0.13
  CSO9                 JUNCTION     0.13     0.64    40.64     0  01:52        0.64
  J8                   JUNCTION     0.11     0.22    36.22     0  02:02        0.22
  CSO8                 JUNCTION     0.15     0.98    32.98     0  01:44        0.92
  J10                  JUNCTION     0.09     0.25    29.25     0  01:51        0.25
  J13                  JUNCTION     0.06     0.16    29.16     0  01:49        0.16
  J15                  JUNCTION     0.16     0.28    15.28     0  01:55        0.28
  J16                  JUNCTION     0.07     0.17    30.17     0  01:49        0.17
  CSO10                JUNCTION     0.12     0.36    30.36     0  01:51        0.36
  J12                  JUNCTION     0.26     0.56    26.56     0  07:50        0.56
  J4                   JUNCTION     0.13     0.27    33.27     0  02:06        0.27
  J6                   JUNCTION     0.06     0.07    25.07     0  04:57        0.07
  J2                   JUNCTION     0.07     0.08    25.08     0  03:48        0.08
  J19                  JUNCTION     0.14     0.17     8.17     0  02:34        0.17
  J9                   JUNCTION     0.09     0.11    29.11     0  03:55        0.11
  J14                  JUNCTION     0.09     0.11    20.11     0  02:00        0.11
  J17                  JUNCTION     0.06     0.07    20.07     0  04:35        0.07
  J7                   JUNCTION     0.08     0.19    39.19     0  01:56        0.19
  J11                  JUNCTION     0.10     0.26    31.26     0  01:53        0.26
  J18                  JUNCTION     0.05     0.14    29.14     0  01:53        0.14
  Out_to_WWTP          OUTFALL      0.14     0.17     6.17     0  03:36        0.17
  T5                   STORAGE      3.19     4.60    31.60     0  03:46        4.60
  T4                   STORAGE      2.78     4.04    31.04     0  04:55        4.04
  T6                   STORAGE      3.61     5.00    36.00     0  02:39        5.00
  T3                   STORAGE      2.99     4.56    26.56     0  07:48        4.56
  T2                   STORAGE      2.58     3.62    24.62     0  04:32        3.62
  T1                   STORAGE      3.04     5.00    15.00     0  02:33        5.00
  
  
  *******************
  Node Inflow Summary
  *******************
  
  -------------------------------------------------------------------------------------------------
                                  Maximum  Maximum                  Lateral       Total        Flow
                                  Lateral    Total  Time of Max      Inflow      Inflow     Balance
                                   Inflow   Inflow   Occurrence      Volume      Volume       Error
  Node                 Type           CMS      CMS  days hr:min    10^6 ltr    10^6 ltr     Percent
  -------------------------------------------------------------------------------------------------
  J1                   JUNCTION     0.237    0.237     0  01:49        1.56        1.56       0.021
  J3                   JUNCTION     0.000    0.118     0  05:02           0        2.55       1.084
  CSO7                 JUNCTION     0.062    0.062     0  02:00       0.589       0.589       0.082
  J5                   JUNCTION     0.079    0.138     0  02:00       0.561        1.15       0.131
  CSO9                 JUNCTION     0.089    0.089     0  01:53       0.633       0.633       0.048
  J8                   JUNCTION     0.356    0.444     0  02:00        2.97         3.6       0.128
  CSO8                 JUNCTION     0.372    0.372     0  01:51        2.07        2.07       0.013
  J10                  JUNCTION     0.293    0.648     0  01:50        1.54         3.6       0.127
  J13                  JUNCTION     0.335    0.335     0  01:49        1.92        1.92      -0.245
  J15                  JUNCTION     0.000    0.707     0  01:50           0        6.66       0.967
  J16                  JUNCTION     0.492    0.492     0  01:48        2.66        2.66       0.001
  CSO10                JUNCTION     0.158    0.158     0  01:51       0.886       0.886       0.047
  J12                  JUNCTION     0.000    0.684     0  01:52           0        5.25       7.748
  J4                   JUNCTION     0.000    0.061     0  02:01           0       0.588       0.632
  J6                   JUNCTION     0.000    0.025     0  04:55           0       0.521       0.718
  J2                   JUNCTION     0.000    0.038     0  03:46           0       0.819       0.600
  J19                  JUNCTION     0.000    0.271     0  02:33           0         5.4       0.183
  J9                   JUNCTION     0.000    0.075     0  02:39           0        1.67       1.030
  J14                  JUNCTION     0.000    0.063     0  02:00           0        1.23       0.346
  J17                  JUNCTION     0.000    0.028     0  04:32           0       0.602       0.995
  J7                   JUNCTION     0.000    0.089     0  01:53           0       0.632       0.500
  J11                  JUNCTION     0.000    0.372     0  01:51           0        2.07       0.296
  J18                  JUNCTION     0.000    0.158     0  01:51           0       0.885       0.107
  Out_to_WWTP          OUTFALL      0.000    0.271     0  02:35           0        5.39       0.000
  T5                   STORAGE      0.000    0.236     0  01:49           0        1.56      31.154
  T4                   STORAGE      0.000    0.138     0  02:01           0        1.14      30.127
  T6                   STORAGE      0.000    0.443     0  02:02           0        3.59      24.485
  T3                   STORAGE      0.000    0.677     0  01:55           0        4.88      35.561
  T2                   STORAGE      0.000    0.335     0  01:49           0        1.92      51.472
  T1                   STORAGE      0.000    0.696     0  01:55           0         6.6       7.186
  
  
  **********************
  Node Surcharge Summary
  **********************
  
  Surcharging occurs when water rises above the top of the highest conduit.
  ---------------------------------------------------------------------
                                               Max. Height   Min. Depth
                                   Hours       Above Crown    Below Rim
  Node                 Type      Surcharged         Meters       Meters
  ---------------------------------------------------------------------
  CSO9                 JUNCTION        0.42          0.318        1.364
  CSO8                 JUNCTION        0.40          0.524        1.023
  
  
  *********************
  Node Flooding Summary
  *********************
  
  Flooding refers to all water that overflows a node, whether it ponds or not.
  --------------------------------------------------------------------------
                                                             Total   Maximum
                                 Maximum   Time of Max       Flood    Ponded
                        Hours       Rate    Occurrence      Volume     Depth
  Node                 Flooded       CMS   days hr:min    10^6 ltr    Meters
  --------------------------------------------------------------------------
  T6                      2.29     0.258      0  02:39       0.717     0.000
  T1                      0.89     0.210      0  02:33       0.405     0.000
  
  
  **********************
  Storage Volume Summary
  **********************
  
  --------------------------------------------------------------------------------------------------
                         Average     Avg  Evap Exfil       Maximum     Max    Time of Max    Maximum
                          Volume    Pcnt  Pcnt  Pcnt        Volume    Pcnt     Occurrence    Outflow
  Storage Unit           1000 m3    Full  Loss  Loss       1000 m3    Full    days hr:min        CMS
  --------------------------------------------------------------------------------------------------
  T5                       0.319      64     0     0         0.460      92       0  03:46      0.038
  T4                       0.278      56     0     0         0.404      81       0  04:55      0.025
  T6                       0.433      72     0     0         0.600     100       0  02:39      0.075
  T3                       1.555      60     0     0         2.372      91       0  07:48      0.063
  T2                       0.515      52     0     0         0.724      72       0  04:32      0.028
  T1                       0.426      61     0     0         0.700     100       0  02:33      0.271
  
  
  ***********************
  Outfall Loading Summary
  ***********************
  
  -----------------------------------------------------------
                         Flow       Avg       Max       Total
                         Freq      Flow      Flow      Volume
  Outfall Node           Pcnt       CMS       CMS    10^6 ltr
  -----------------------------------------------------------
  Out_to_WWTP           99.01     0.193     0.271       5.385
  -----------------------------------------------------------
  System                99.01     0.193     0.271       5.385
  
  
  ********************
  Link Flow Summary
  ********************
  
  -----------------------------------------------------------------------------
                                 Maximum  Time of Max   Maximum    Max/    Max/
                                  |Flow|   Occurrence   |Veloc|    Full    Full
  Link                 Type          CMS  days hr:min     m/sec    Flow   Depth
  -----------------------------------------------------------------------------
  C1                   CONDUIT     0.038     0  03:48      1.04    0.01    0.09
  C6                   CONDUIT     0.060     0  02:07      1.26    0.95    0.66
  C2                   CONDUIT     0.025     0  04:57      0.96    0.03    0.15
  C9                   CONDUIT     0.089     0  01:56      1.19    0.30    0.41
  C16                  CONDUIT     0.370     0  01:53      1.61    0.04    0.13
  C3                   CONDUIT     0.061     0  02:01      1.49    0.02    0.11
  C19                  CONDUIT     0.028     0  04:35      0.63    0.01    0.17
  C11                  CONDUIT     0.118     0  05:04      1.43    0.01    0.09
  C20                  CONDUIT     0.492     0  01:49      2.62    0.02    0.11
  C22                  CONDUIT     0.157     0  01:53      1.47    0.07    0.27
  C12                  CONDUIT     0.075     0  03:55      1.00    0.01    0.17
  C17                  CONDUIT     0.646     0  01:52      2.75    0.03    0.15
  C10                  CONDUIT     0.443     0  02:02      1.66    0.05    0.57
  C13                  CONDUIT     0.677     0  01:55      1.45    0.04    0.64
  C18                  CONDUIT     0.335     0  01:49      1.72    0.01    0.53
  C23                  CONDUIT     0.696     0  01:55      1.24    0.08    0.59
  C4                   CONDUIT     0.236     0  01:49      1.98    0.06    0.58
  C7                   CONDUIT     0.138     0  02:01      1.43    0.03    0.56
  C14                  CONDUIT     0.271     0  02:35      2.08    0.02    0.09
  C5                   CONDUIT     0.061     0  02:01      1.24    1.05    0.93
  C8                   CONDUIT     0.089     0  01:53      1.33    1.13    0.80
  C15                  CONDUIT     0.372     0  01:51      2.74    1.18    0.79
  C21                  CONDUIT     0.158     0  01:51      1.76    0.90    0.57
  V4                   ORIFICE     0.025     0  04:55                      0.35
  V5                   ORIFICE     0.038     0  03:46                      1.00
  V1                   ORIFICE     0.271     0  02:33                      1.00
  V6                   ORIFICE     0.075     0  02:39                      0.43
  V3                   ORIFICE     0.063     0  02:00                      0.65
  V2                   ORIFICE     0.028     0  04:32                      0.24
  
  
  ***************************
  Flow Classification Summary
  ***************************
  
  -------------------------------------------------------------------------------------
                      Adjusted    ---------- Fraction of Time in Flow Class ---------- 
                       /Actual         Up    Down  Sub   Sup   Up    Down  Norm  Inlet 
  Conduit               Length    Dry  Dry   Dry   Crit  Crit  Crit  Crit  Ltd   Ctrl  
  -------------------------------------------------------------------------------------
  C1                      1.00   0.00  0.00  0.00  0.00  1.00  0.00  0.00  0.93  0.00
  C6                      1.00   0.00  0.00  0.00  0.05  0.95  0.00  0.00  0.00  0.00
  C2                      1.00   0.00  0.00  0.00  0.21  0.78  0.00  0.00  0.97  0.00
  C9                      1.00   0.00  0.00  0.00  1.00  0.00  0.00  0.00  1.00  0.00
  C16                     1.00   0.00  0.00  0.00  0.59  0.41  0.00  0.00  0.48  0.00
  C3                      1.00   0.00  0.00  0.00  0.04  0.95  0.00  0.00  0.84  0.00
  C19                     1.00   0.00  0.00  0.00  1.00  0.00  0.00  0.00  1.00  0.00
  C11                     1.00   0.00  0.00  0.00  0.33  0.67  0.00  0.00  1.00  0.00
  C20                     1.00   0.00  0.00  0.00  0.55  0.45  0.00  0.00  0.98  0.00
  C22                     1.00   0.00  0.00  0.00  0.75  0.25  0.00  0.00  1.00  0.00
  C12                     1.00   0.00  0.00  0.00  0.94  0.06  0.00  0.00  1.00  0.00
  C17                     1.00   0.00  0.00  0.00  0.47  0.53  0.00  0.00  0.94  0.00
  C10                     1.00   0.00  0.00  0.00  0.96  0.04  0.00  0.00  0.97  0.00
  C13                     1.00   0.00  0.00  0.00  0.83  0.17  0.00  0.00  0.42  0.00
  C18                     1.00   0.00  0.00  0.00  0.94  0.06  0.00  0.00  0.97  0.00
  C23                     1.00   0.00  0.00  0.00  0.86  0.14  0.00  0.00  0.94  0.00
  C4                      1.00   0.00  0.00  0.00  0.96  0.04  0.00  0.00  0.98  0.00
  C7                      1.00   0.00  0.00  0.00  0.95  0.05  0.00  0.00  0.97  0.00
  C14                     1.00   0.00  0.00  0.00  0.00  0.99  0.00  0.00  0.36  0.00
  C5                      1.00   0.00  0.00  0.00  0.90  0.10  0.00  0.00  0.98  0.00
  C8                      1.00   0.00  0.00  0.00  0.10  0.90  0.00  0.00  0.00  0.00
  C15                     1.00   0.00  0.00  0.00  0.00  1.00  0.00  0.00  0.00  0.00
  C21                     1.00   0.00  0.00  0.00  0.00  1.00  0.00  0.00  0.00  0.00
  
  
  *************************
  Conduit Surcharge Summary
  *************************
  
  ----------------------------------------------------------------------------
                                                           Hours        Hours 
                         --------- Hours Full --------   Above Full   Capacity
  Conduit                Both Ends  Upstream  Dnstream   Normal Flow   Limited
  ----------------------------------------------------------------------------
  C10                         0.01      0.01      5.97      0.01         0.01
  C13                         0.01      0.01      5.54      0.01         0.01
  C18                         0.01      0.01      5.63      0.01         0.01
  C23                         0.01      0.01      6.03      0.01         0.01
  C4                          0.01      0.01      6.13      0.01         0.01
  C7                          0.01      0.01      5.95      0.01         0.01
  C5                          0.01      0.01      0.29      0.31         0.01
  C8                          0.01      0.42      0.01      0.40         0.01
  C15                         0.01      0.40      0.01      0.45         0.01
  

  Analysis begun on:  Fri Sep  3 16:02:34 2021
  Analysis ended on:  Fri Sep  3 16:02:34 2021
  Total elapsed time: < 1 sec