
  EPA STORM WATER MANAGEMENT MODEL - VERSION 5.1 (Build 5.3.0.dev0)
  --------------------------------------------------------------

  
  *********************************************************
  NOTE: The summary statistics displayed in this report are
  based on results found at every computational time step,  
  not just on results from each reporting time step.
  *********************************************************
  
  ****************
  Analysis Options
  ****************
  Flow Units ............... CMS
  Process Models:
    Rainfall/Runoff ........ YES
    RDII ................... NO
    Snowmelt ............... NO
    Groundwater ............ NO
    Flow Routing ........... YES
    Ponding Allowed ........ YES
    Water Quality .......... NO
  Infiltration Method ...... HORTON
  Flow Routing Method ...... DYNWAVE
  Surcharge Method ......... EXTRAN
  Starting Date ............ 08/28/2015 08:00:00
  Ending Date .............. 08/28/2015 15:50:00
  Antecedent Dry Days ...... 0.0
  Report Time Step ......... 00:01:00
  Wet Time Step ............ 00:01:00
  Dry Time Step ............ 00:01:00
  Routing Time Step ........ 5.00 sec
  Variable Time Step ....... YES
  Maximum Trials ........... 8
  Number of Threads ........ 1
  Head Tolerance ........... 0.001500 m
  
  
  **************************        Volume         Depth
  Runoff Quantity Continuity     hectare-m            mm
  **************************     ---------       -------
  Total Precipitation ......         1.170         6.491
  Evaporation Loss .........         0.000         0.000
  Infiltration Loss ........         0.000         0.000
  Surface Runoff ...........         1.147         6.367
  Final Storage ............         0.022         0.124
  Continuity Error (%) .....        -0.012
  
  
  **************************        Volume        Volume
  Flow Routing Continuity        hectare-m      10^6 ltr
  **************************     ---------     ---------
  Dry Weather Inflow .......         0.396         3.955
  Wet Weather Inflow .......         1.147        11.473
  Groundwater Inflow .......         0.000         0.000
  RDII Inflow ..............         0.000         0.000
  External Inflow ..........         0.000         0.000
  External Outflow .........         0.555         5.548
  Flooding Loss ............         0.104         1.035
  Evaporation Loss .........         0.000         0.000
  Exfiltration Loss ........         0.000         0.000
  Initial Stored Volume ....         0.000         0.000
  Final Stored Volume ......         0.691         6.915
  Continuity Error (%) .....        12.513
  
  
  *************************
  Highest Continuity Errors
  *************************
  Node T2 (33.52%)
  Node T3 (26.10%)
  Node T5 (23.43%)
  Node T4 (22.77%)
  Node T6 (19.59%)
  
  
  ***************************
  Time-Step Critical Elements
  ***************************
  None
  
  
  ********************************
  Highest Flow Instability Indexes
  ********************************
  Link C13 (1)
  
  
  *************************
  Routing Time Step Summary
  *************************
  Minimum Time Step           :     4.50 sec
  Average Time Step           :     5.00 sec
  Maximum Time Step           :     5.00 sec
  Percent in Steady State     :     0.00
  Average Iterations per Step :     2.13
  Percent Not Converging      :     0.41
  
  
  ***************************
  Subcatchment Runoff Summary
  ***************************
  
  ------------------------------------------------------------------------------------------------------------------------------
                            Total      Total      Total      Total     Imperv       Perv      Total       Total     Peak  Runoff
                           Precip      Runon       Evap      Infil     Runoff     Runoff     Runoff      Runoff   Runoff   Coeff
  Subcatchment                 mm         mm         mm         mm         mm         mm         mm    10^6 ltr      CMS
  ------------------------------------------------------------------------------------------------------------------------------
  SC01                       6.49       0.00       0.00       0.00       6.41       0.00       6.41        2.11     0.63   0.987
  SC02                       6.49       0.00       0.00       0.00       6.40       0.00       6.40        1.46     0.43   0.986
  SC03                       6.49       0.00       0.00       0.00       6.42       0.00       6.42        1.16     0.38   0.990
  SC04                       6.49       0.00       0.00       0.00       6.31       0.00       6.31        0.44     0.10   0.972
  SC05                       6.49       0.00       0.00       0.00       6.40       0.00       6.40        1.00     0.29   0.986
  SC06                       6.49       0.00       0.00       0.00       6.26       0.00       6.26        2.04     0.41   0.965
  SC07                       6.49       0.00       0.00       0.00       6.31       0.00       6.31        0.30     0.07   0.972
  SC08                       6.49       0.00       0.00       0.00       6.38       0.00       6.38        1.79     0.48   0.983
  SC09                       6.49       0.00       0.00       0.00       6.36       0.00       6.36        0.44     0.11   0.979
  SC010                      6.49       0.00       0.00       0.00       6.38       0.00       6.38        0.75     0.20   0.983
  
  
  ******************
  Node Depth Summary
  ******************
  
  ---------------------------------------------------------------------------------
                                 Average  Maximum  Maximum  Time of Max    Reported
                                   Depth    Depth      HGL   Occurrence   Max Depth
  Node                 Type       Meters   Meters   Meters  days hr:min      Meters
  ---------------------------------------------------------------------------------
  J1                   JUNCTION     0.07     0.19    34.19     0  01:36        0.19
  J3                   JUNCTION     0.09     0.11    18.11     0  05:09        0.11
  CSO7                 JUNCTION     0.12     1.20    35.20     0  01:37        1.20
  J5                   JUNCTION     0.06     0.14    32.14     0  01:40        0.14
  CSO9                 JUNCTION     0.14     1.55    41.55     0  01:40        1.55
  J8                   JUNCTION     0.11     0.24    36.24     0  01:40        0.24
  CSO8                 JUNCTION     0.18     2.00    34.00     0  01:36        2.00
  J10                  JUNCTION     0.09     0.28    29.28     0  01:38        0.28
  J13                  JUNCTION     0.06     0.18    29.18     0  01:36        0.18
  J15                  JUNCTION     0.16     0.32    15.32     0  01:40        0.32
  J16                  JUNCTION     0.07     0.20    30.20     0  01:36        0.20
  CSO10                JUNCTION     0.13     1.00    31.00     0  01:31        1.00
  J12                  JUNCTION     0.27     0.57    26.57     0  07:49        0.57
  J4                   JUNCTION     0.13     1.23    34.23     0  01:37        0.78
  J6                   JUNCTION     0.06     0.07    25.07     0  04:57        0.07
  J2                   JUNCTION     0.07     0.08    25.08     0  03:48        0.08
  J19                  JUNCTION     0.14     0.17     8.17     0  02:30        0.17
  J9                   JUNCTION     0.09     0.11    29.11     0  03:49        0.11
  J14                  JUNCTION     0.09     0.10    20.10     0  07:45        0.10
  J17                  JUNCTION     0.06     0.07    20.07     0  04:36        0.07
  J7                   JUNCTION     0.08     0.22    39.22     0  01:40        0.22
  J11                  JUNCTION     0.10     0.30    31.30     0  01:40        0.30
  J18                  JUNCTION     0.05     0.16    29.16     0  01:40        0.16
  Out_to_WWTP          OUTFALL      0.14     0.17     6.17     0  03:35        0.17
  T5                   STORAGE      3.24     4.55    31.55     0  03:46        4.55
  T4                   STORAGE      2.80     3.98    30.98     0  04:55        3.98
  T6                   STORAGE      3.73     5.00    36.00     0  02:33        5.00
  T3                   STORAGE      3.07     4.57    26.57     0  07:44        4.57
  T2                   STORAGE      2.60     3.57    24.57     0  04:33        3.57
  T1                   STORAGE      3.17     5.00    15.00     0  02:28        5.00
  
  
  *******************
  Node Inflow Summary
  *******************
  
  -------------------------------------------------------------------------------------------------
                                  Maximum  Maximum                  Lateral       Total        Flow
                                  Lateral    Total  Time of Max      Inflow      Inflow     Balance
                                   Inflow   Inflow   Occurrence      Volume      Volume       Error
  Node                 Type           CMS      CMS  days hr:min    10^6 ltr    10^6 ltr     Percent
  -------------------------------------------------------------------------------------------------
  J1                   JUNCTION     0.309    0.309     0  01:36        1.56        1.56       0.004
  J3                   JUNCTION     0.000    0.118     0  05:08           0        2.61       1.056
  CSO7                 JUNCTION     0.076    0.076     0  01:40        0.59        0.59       0.083
  J5                   JUNCTION     0.100    0.171     0  01:40       0.563        1.15       0.118
  CSO9                 JUNCTION     0.116    0.116     0  01:40       0.635       0.635       0.053
  J8                   JUNCTION     0.435    0.548     0  01:40        2.98        3.61       0.110
  CSO8                 JUNCTION     0.488    0.488     0  01:39        2.08        2.08       0.024
  J10                  JUNCTION     0.391    0.854     0  01:37        1.54        3.61       0.117
  J13                  JUNCTION     0.441    0.441     0  01:36        1.92        1.92      -0.318
  J15                  JUNCTION     0.000    0.931     0  01:37           0        6.76       0.951
  J16                  JUNCTION     0.651    0.651     0  01:36        2.67        2.67      -0.020
  CSO10                JUNCTION     0.208    0.208     0  01:38       0.889       0.889       0.035
  J12                  JUNCTION     0.000    0.887     0  01:39           0         5.3       7.849
  J4                   JUNCTION     0.000    0.074     0  01:37           0       0.589       0.556
  J6                   JUNCTION     0.000    0.025     0  04:55           0       0.533       0.700
  J2                   JUNCTION     0.000    0.037     0  03:46           0       0.831       0.592
  J19                  JUNCTION     0.000    0.271     0  02:29           0        5.56       0.177
  J9                   JUNCTION     0.000    0.075     0  02:33           0        1.71       1.015
  J14                  JUNCTION     0.000    0.057     0  07:44           0        1.26       0.335
  J17                  JUNCTION     0.000    0.028     0  04:33           0       0.624       0.939
  J7                   JUNCTION     0.000    0.116     0  01:40           0       0.634       0.501
  J11                  JUNCTION     0.000    0.486     0  01:40           0        2.08       0.309
  J18                  JUNCTION     0.000    0.202     0  01:40           0       0.887       0.101
  Out_to_WWTP          OUTFALL      0.000    0.271     0  02:30           0        5.55       0.000
  T5                   STORAGE      0.000    0.309     0  01:36           0        1.56      30.608
  T4                   STORAGE      0.000    0.169     0  01:40           0        1.15      29.483
  T6                   STORAGE      0.000    0.541     0  01:40           0        3.61      24.358
  T3                   STORAGE      0.000    0.876     0  01:41           0        4.92      35.317
  T2                   STORAGE      0.000    0.441     0  01:36           0        1.93      50.418
  T1                   STORAGE      0.000    0.915     0  01:40           0        6.69       7.048
  
  
  **********************
  Node Surcharge Summary
  **********************
  
  Surcharging occurs when water rises above the top of the highest conduit.
  ---------------------------------------------------------------------
                                               Max. Height   Min. Depth
                                   Hours       Above Crown    Below Rim
  Node                 Type      Surcharged         Meters       Meters
  ---------------------------------------------------------------------
  CSO7                 JUNCTION        0.30          0.945        0.000
  CSO9                 JUNCTION        0.36          1.234        0.448
  CSO8                 JUNCTION        0.36          1.547        0.000
  CSO10                JUNCTION        0.21          0.560        0.000
  J4                   JUNCTION        0.27          0.933        0.767
  
  
  *********************
  Node Flooding Summary
  *********************
  
  Flooding refers to all water that overflows a node, whether it ponds or not.
  --------------------------------------------------------------------------
                                                             Total   Maximum
                                 Maximum   Time of Max       Flood    Ponded
                        Hours       Rate    Occurrence      Volume     Depth
  Node                 Flooded       CMS   days hr:min    10^6 ltr    Meters
  --------------------------------------------------------------------------
  CSO7                    0.08     0.007      0  01:37       0.001     0.000
  CSO8                    0.06     0.002      0  01:38       0.000     0.000
  CSO10                   0.11     0.009      0  01:31       0.002     0.000
  T6                      2.35     0.201      0  03:01       0.693     0.000
  T1                      0.95     0.147      0  03:02       0.340     0.000
  
  
  **********************
  Storage Volume Summary
  **********************
  
  --------------------------------------------------------------------------------------------------
                         Average     Avg  Evap Exfil       Maximum     Max    Time of Max    Maximum
                          Volume    Pcnt  Pcnt  Pcnt        Volume    Pcnt     Occurrence    Outflow
  Storage Unit           1000 m3    Full  Loss  Loss       1000 m3    Full    days hr:min        CMS
  --------------------------------------------------------------------------------------------------
  T5                       0.324      65     0     0         0.455      91       0  03:46      0.037
  T4                       0.280      56     0     0         0.398      80       0  04:55      0.025
  T6                       0.447      75     0     0         0.600     100       0  02:33      0.075
  T3                       1.594      61     0     0         2.375      91       0  07:44      0.057
  T2                       0.520      52     0     0         0.714      71       0  04:33      0.028
  T1                       0.444      63     0     0         0.700     100       0  02:28      0.271
  
  
  ***********************
  Outfall Loading Summary
  ***********************
  
  -----------------------------------------------------------
                         Flow       Avg       Max       Total
                         Freq      Flow      Flow      Volume
  Outfall Node           Pcnt       CMS       CMS    10^6 ltr
  -----------------------------------------------------------
  Out_to_WWTP           99.01     0.199     0.271       5.548
  -----------------------------------------------------------
  System                99.01     0.199     0.271       5.548
  
  
  ********************
  Link Flow Summary
  ********************
  
  -----------------------------------------------------------------------------
                                 Maximum  Time of Max   Maximum    Max/    Max/
                                  |Flow|   Occurrence   |Veloc|    Full    Full
  Link                 Type          CMS  days hr:min     m/sec    Flow   Depth
  -----------------------------------------------------------------------------
  C1                   CONDUIT     0.037     0  03:48      1.03    0.01    0.09
  C6                   CONDUIT     0.070     0  01:40      1.28    1.12    0.73
  C2                   CONDUIT     0.025     0  04:57      0.95    0.03    0.15
  C9                   CONDUIT     0.113     0  01:40      1.30    0.39    0.46
  C16                  CONDUIT     0.484     0  01:40      1.75    0.05    0.14
  C3                   CONDUIT     0.057     0  07:45      1.41    0.02    0.11
  C19                  CONDUIT     0.028     0  04:36      0.63    0.01    0.19
  C11                  CONDUIT     0.118     0  05:09      1.43    0.01    0.10
  C20                  CONDUIT     0.651     0  01:36      2.89    0.02    0.13
  C22                  CONDUIT     0.202     0  01:40      1.60    0.09    0.30
  C12                  CONDUIT     0.075     0  03:48      0.99    0.01    0.17
  C17                  CONDUIT     0.851     0  01:38      3.02    0.04    0.16
  C10                  CONDUIT     0.541     0  01:40      1.66    0.06    0.58
  C13                  CONDUIT     0.876     0  01:41      1.62    0.05    0.64
  C18                  CONDUIT     0.441     0  01:36      1.72    0.02    0.53
  C23                  CONDUIT     0.915     0  01:40      1.25    0.10    0.61
  C4                   CONDUIT     0.309     0  01:36      1.98    0.07    0.59
  C7                   CONDUIT     0.169     0  01:40      1.43    0.04    0.57
  C14                  CONDUIT     0.271     0  02:30      2.08    0.02    0.09
  C5                   CONDUIT     0.074     0  01:37      1.43    1.26    1.00
  C8                   CONDUIT     0.116     0  01:40      1.63    1.46    0.84
  C15                  CONDUIT     0.486     0  01:40      3.42    1.55    0.83
  C21                  CONDUIT     0.202     0  01:40      1.83    1.16    0.69
  V4                   ORIFICE     0.025     0  04:55                      0.35
  V5                   ORIFICE     0.037     0  03:46                      1.00
  V1                   ORIFICE     0.271     0  02:29                      1.00
  V6                   ORIFICE     0.075     0  02:33                      0.43
  V3                   ORIFICE     0.057     0  07:44                      0.65
  V2                   ORIFICE     0.028     0  04:33                      0.24
  
  
  ***************************
  Flow Classification Summary
  ***************************
  
  -------------------------------------------------------------------------------------
                      Adjusted    ---------- Fraction of Time in Flow Class ---------- 
                       /Actual         Up    Down  Sub   Sup   Up    Down  Norm  Inlet 
  Conduit               Length    Dry  Dry   Dry   Crit  Crit  Crit  Crit  Ltd   Ctrl  
  -------------------------------------------------------------------------------------
  C1                      1.00   0.00  0.00  0.00  0.00  1.00  0.00  0.00  0.93  0.00
  C6                      1.00   0.00  0.00  0.00  0.06  0.94  0.00  0.00  0.00  0.00
  C2                      1.00   0.00  0.00  0.00  0.17  0.83  0.00  0.00  0.97  0.00
  C9                      1.00   0.00  0.00  0.00  1.00  0.00  0.00  0.00  1.00  0.00
  C16                     1.00   0.00  0.00  0.00  0.59  0.41  0.00  0.00  0.47  0.00
  C3                      1.00   0.00  0.00  0.00  0.04  0.95  0.00  0.00  0.83  0.00
  C19                     1.00   0.00  0.00  0.00  1.00  0.00  0.00  0.00  1.00  0.00
  C11                     1.00   0.00  0.00  0.00  0.34  0.66  0.00  0.00  1.00  0.00
  C20                     1.00   0.00  0.00  0.00  0.55  0.45  0.00  0.00  0.98  0.00
  C22                     1.00   0.00  0.00  0.00  0.81  0.19  0.00  0.00  1.00  0.00
  C12                     1.00   0.00  0.00  0.00  0.95  0.05  0.00  0.00  1.00  0.00
  C17                     1.00   0.00  0.00  0.00  0.48  0.52  0.00  0.00  0.92  0.00
  C10                     1.00   0.00  0.00  0.00  0.96  0.04  0.00  0.00  0.97  0.00
  C13                     1.00   0.00  0.00  0.00  0.82  0.18  0.00  0.00  0.41  0.00
  C18                     1.00   0.00  0.00  0.00  0.94  0.06  0.00  0.00  0.97  0.00
  C23                     1.00   0.00  0.00  0.00  0.85  0.15  0.00  0.00  0.94  0.00
  C4                      1.00   0.00  0.00  0.00  0.96  0.04  0.00  0.00  0.98  0.00
  C7                      1.00   0.00  0.00  0.00  0.95  0.05  0.00  0.00  0.97  0.00
  C14                     1.00   0.00  0.00  0.00  0.00  0.99  0.00  0.00  0.36  0.00
  C5                      1.00   0.00  0.00  0.00  0.92  0.08  0.00  0.00  0.93  0.00
  C8                      1.00   0.00  0.00  0.00  0.07  0.93  0.00  0.00  0.00  0.00
  C15                     1.00   0.00  0.00  0.00  0.00  1.00  0.00  0.00  0.00  0.00
  C21                     1.00   0.00  0.00  0.00  0.01  0.99  0.00  0.00  0.00  0.00
  
  
  *************************
  Conduit Surcharge Summary
  *************************
  
  ----------------------------------------------------------------------------
                                                           Hours        Hours 
                         --------- Hours Full --------   Above Full   Capacity
  Conduit                Both Ends  Upstream  Dnstream   Normal Flow   Limited
  ----------------------------------------------------------------------------
  C6                          0.01      0.27      0.01      0.14         0.01
  C10                         0.01      0.01      6.19      0.01         0.01
  C13                         0.01      0.01      5.76      0.01         0.01
  C18                         0.01      0.01      5.85      0.01         0.01
  C23                         0.01      0.01      6.25      0.01         0.01
  C4                          0.01      0.01      6.32      0.01         0.01
  C7                          0.01      0.01      6.16      0.01         0.01
  C5                          0.28      0.30      0.39      0.32         0.24
  C8                          0.01      0.36      0.01      0.36         0.01
  C15                         0.01      0.36      0.01      0.39         0.01
  C21                         0.01      0.21      0.01      0.21         0.01
  

  Analysis begun on:  Fri Sep  3 16:08:57 2021
  Analysis ended on:  Fri Sep  3 16:08:57 2021
  Total elapsed time: < 1 sec