
  EPA STORM WATER MANAGEMENT MODEL - VERSION 5.1 (Build 5.3.0.dev0)
  --------------------------------------------------------------

  
  *********************************************************
  NOTE: The summary statistics displayed in this report are
  based on results found at every computational time step,  
  not just on results from each reporting time step.
  *********************************************************
  
  ****************
  Analysis Options
  ****************
  Flow Units ............... CMS
  Process Models:
    Rainfall/Runoff ........ YES
    RDII ................... NO
    Snowmelt ............... NO
    Groundwater ............ NO
    Flow Routing ........... YES
    Ponding Allowed ........ YES
    Water Quality .......... NO
  Infiltration Method ...... HORTON
  Flow Routing Method ...... DYNWAVE
  Surcharge Method ......... EXTRAN
  Starting Date ............ 08/28/2015 08:00:00
  Ending Date .............. 08/28/2015 15:50:00
  Antecedent Dry Days ...... 0.0
  Report Time Step ......... 00:01:00
  Wet Time Step ............ 00:01:00
  Dry Time Step ............ 00:01:00
  Routing Time Step ........ 5.00 sec
  Variable Time Step ....... YES
  Maximum Trials ........... 8
  Number of Threads ........ 1
  Head Tolerance ........... 0.001500 m
  
  
  **************************        Volume         Depth
  Runoff Quantity Continuity     hectare-m            mm
  **************************     ---------       -------
  Total Precipitation ......         1.162         6.448
  Evaporation Loss .........         0.000         0.000
  Infiltration Loss ........         0.000         0.000
  Surface Runoff ...........         1.138         6.318
  Final Storage ............         0.024         0.131
  Continuity Error (%) .....        -0.009
  
  
  **************************        Volume        Volume
  Flow Routing Continuity        hectare-m      10^6 ltr
  **************************     ---------     ---------
  Dry Weather Inflow .......         0.396         3.955
  Wet Weather Inflow .......         1.138        11.384
  Groundwater Inflow .......         0.000         0.000
  RDII Inflow ..............         0.000         0.000
  External Inflow ..........         0.000         0.000
  External Outflow .........         0.513         5.127
  Flooding Loss ............         0.129         1.286
  Evaporation Loss .........         0.000         0.000
  Exfiltration Loss ........         0.000         0.000
  Initial Stored Volume ....         0.000         0.000
  Final Stored Volume ......         0.692         6.925
  Continuity Error (%) .....        13.047
  
  
  *************************
  Highest Continuity Errors
  *************************
  Node T2 (34.73%)
  Node T3 (26.23%)
  Node T5 (24.60%)
  Node T4 (23.91%)
  Node T6 (20.08%)
  
  
  ***************************
  Time-Step Critical Elements
  ***************************
  None
  
  
  ********************************
  Highest Flow Instability Indexes
  ********************************
  All links are stable.
  
  
  *************************
  Routing Time Step Summary
  *************************
  Minimum Time Step           :     4.50 sec
  Average Time Step           :     5.00 sec
  Maximum Time Step           :     5.00 sec
  Percent in Steady State     :     0.00
  Average Iterations per Step :     2.16
  Percent Not Converging      :     0.59
  
  
  ***************************
  Subcatchment Runoff Summary
  ***************************
  
  ------------------------------------------------------------------------------------------------------------------------------
                            Total      Total      Total      Total     Imperv       Perv      Total       Total     Peak  Runoff
                           Precip      Runon       Evap      Infil     Runoff     Runoff     Runoff      Runoff   Runoff   Coeff
  Subcatchment                 mm         mm         mm         mm         mm         mm         mm    10^6 ltr      CMS
  ------------------------------------------------------------------------------------------------------------------------------
  SC01                       6.45       0.00       0.00       0.00       6.36       0.00       6.36        2.10     0.64   0.987
  SC02                       6.45       0.00       0.00       0.00       6.36       0.00       6.36        1.45     0.44   0.986
  SC03                       6.45       0.00       0.00       0.00       6.38       0.00       6.38        1.15     0.38   0.989
  SC04                       6.45       0.00       0.00       0.00       6.25       0.00       6.25        0.43     0.11   0.970
  SC05                       6.45       0.00       0.00       0.00       6.36       0.00       6.36        0.99     0.30   0.986
  SC06                       6.45       0.00       0.00       0.00       6.20       0.00       6.20        2.02     0.48   0.962
  SC07                       6.45       0.00       0.00       0.00       6.25       0.00       6.25        0.30     0.08   0.970
  SC08                       6.45       0.00       0.00       0.00       6.33       0.00       6.33        1.77     0.50   0.982
  SC09                       6.45       0.00       0.00       0.00       6.31       0.00       6.31        0.44     0.12   0.978
  SC010                      6.45       0.00       0.00       0.00       6.34       0.00       6.34        0.74     0.21   0.982
  
  
  ******************
  Node Depth Summary
  ******************
  
  ---------------------------------------------------------------------------------
                                 Average  Maximum  Maximum  Time of Max    Reported
                                   Depth    Depth      HGL   Occurrence   Max Depth
  Node                 Type       Meters   Meters   Meters  days hr:min      Meters
  ---------------------------------------------------------------------------------
  J1                   JUNCTION     0.07     0.19    34.19     0  03:01        0.19
  J3                   JUNCTION     0.09     0.11    18.11     0  05:15        0.11
  CSO7                 JUNCTION     0.13     1.20    35.20     0  02:56        1.20
  J5                   JUNCTION     0.06     0.14    32.14     0  03:01        0.14
  CSO9                 JUNCTION     0.14     2.00    42.00     0  03:01        2.00
  J8                   JUNCTION     0.11     0.26    36.26     0  03:01        0.26
  CSO8                 JUNCTION     0.17     2.00    34.00     0  02:59        2.00
  J10                  JUNCTION     0.09     0.28    29.28     0  03:01        0.28
  J13                  JUNCTION     0.06     0.18    29.18     0  03:01        0.18
  J15                  JUNCTION     0.15     0.32    15.32     0  03:02        0.32
  J16                  JUNCTION     0.07     0.20    30.20     0  03:01        0.20
  CSO10                JUNCTION     0.13     1.00    31.00     0  02:59        1.00
  J12                  JUNCTION     0.24     0.52    26.52     0  07:46        0.52
  J4                   JUNCTION     0.14     1.23    34.23     0  02:56        0.75
  J6                   JUNCTION     0.05     0.07    25.07     0  05:06        0.07
  J2                   JUNCTION     0.06     0.08    25.08     0  04:07        0.08
  J19                  JUNCTION     0.13     0.17     8.17     0  03:03        0.17
  J9                   JUNCTION     0.09     0.11    29.11     0  04:23        0.11
  J14                  JUNCTION     0.08     0.10    20.10     0  07:50        0.10
  J17                  JUNCTION     0.06     0.07    20.07     0  04:47        0.07
  J7                   JUNCTION     0.08     0.22    39.22     0  03:02        0.22
  J11                  JUNCTION     0.10     0.29    31.29     0  03:02        0.29
  J18                  JUNCTION     0.05     0.16    29.16     0  03:02        0.16
  Out_to_WWTP          OUTFALL      0.13     0.17     6.17     0  03:50        0.17
  T5                   STORAGE      3.05     4.72    31.72     0  04:05        4.72
  T4                   STORAGE      2.64     4.12    31.12     0  05:04        4.12
  T6                   STORAGE      3.37     5.00    36.00     0  03:05        5.00
  T3                   STORAGE      2.77     4.53    26.53     0  07:50        4.53
  T2                   STORAGE      2.45     3.69    24.69     0  04:45        3.69
  T1                   STORAGE      2.82     5.00    15.00     0  03:02        5.00
  
  
  *******************
  Node Inflow Summary
  *******************
  
  -------------------------------------------------------------------------------------------------
                                  Maximum  Maximum                  Lateral       Total        Flow
                                  Lateral    Total  Time of Max      Inflow      Inflow     Balance
                                   Inflow   Inflow   Occurrence      Volume      Volume       Error
  Node                 Type           CMS      CMS  days hr:min    10^6 ltr    10^6 ltr     Percent
  -------------------------------------------------------------------------------------------------
  J1                   JUNCTION     0.321    0.321     0  03:01        1.55        1.55       0.035
  J3                   JUNCTION     0.000    0.119     0  05:13           0        2.48       1.112
  CSO7                 JUNCTION     0.087    0.087     0  03:01       0.588       0.588       0.076
  J5                   JUNCTION     0.114    0.185     0  03:01       0.559        1.14       0.152
  CSO9                 JUNCTION     0.126    0.126     0  03:01       0.631       0.631       0.073
  J8                   JUNCTION     0.519    0.633     0  03:01        2.96        3.59       0.151
  CSO8                 JUNCTION     0.513    0.513     0  03:01        2.06        2.06       0.027
  J10                  JUNCTION     0.392    0.862     0  03:01        1.53        3.59       0.132
  J13                  JUNCTION     0.455    0.455     0  03:01        1.91        1.91      -0.171
  J15                  JUNCTION     0.000    0.965     0  03:01           0        6.55       1.006
  J16                  JUNCTION     0.666    0.666     0  03:01        2.65        2.65       0.002
  CSO10                JUNCTION     0.219    0.219     0  03:01       0.883       0.883       0.041
  J12                  JUNCTION     0.000    0.900     0  03:01           0        5.17       7.097
  J4                   JUNCTION     0.000    0.072     0  02:56           0       0.582       0.573
  J6                   JUNCTION     0.000    0.025     0  05:04           0       0.496       0.762
  J2                   JUNCTION     0.000    0.038     0  04:05           0        0.79       0.635
  J19                  JUNCTION     0.000    0.271     0  03:02           0        5.14       0.195
  J9                   JUNCTION     0.000    0.075     0  03:05           0         1.6       1.071
  J14                  JUNCTION     0.000    0.057     0  07:50           0        1.21       0.351
  J17                  JUNCTION     0.000    0.029     0  04:45           0       0.568       1.058
  J7                   JUNCTION     0.000    0.125     0  03:01           0       0.631       0.503
  J11                  JUNCTION     0.000    0.486     0  03:01           0        2.06       0.296
  J18                  JUNCTION     0.000    0.202     0  03:01           0       0.882       0.115
  Out_to_WWTP          OUTFALL      0.000    0.271     0  03:04           0        5.13       0.000
  T5                   STORAGE      0.000    0.314     0  03:01           0        1.55      32.627
  T4                   STORAGE      0.000    0.182     0  03:01           0        1.14      31.422
  T6                   STORAGE      0.000    0.616     0  03:02           0        3.58      25.125
  T3                   STORAGE      0.000    0.866     0  03:03           0        4.82      35.561
  T2                   STORAGE      0.000    0.444     0  03:01           0        1.92      53.213
  T1                   STORAGE      0.000    0.904     0  03:03           0        6.48       7.559
  
  
  **********************
  Node Surcharge Summary
  **********************
  
  Surcharging occurs when water rises above the top of the highest conduit.
  ---------------------------------------------------------------------
                                               Max. Height   Min. Depth
                                   Hours       Above Crown    Below Rim
  Node                 Type      Surcharged         Meters       Meters
  ---------------------------------------------------------------------
  CSO7                 JUNCTION        0.34          0.945        0.000
  CSO9                 JUNCTION        0.36          1.682        0.000
  CSO8                 JUNCTION        0.32          1.547        0.000
  CSO10                JUNCTION        0.13          0.560        0.000
  J4                   JUNCTION        0.31          0.925        0.775
  
  
  *********************
  Node Flooding Summary
  *********************
  
  Flooding refers to all water that overflows a node, whether it ponds or not.
  --------------------------------------------------------------------------
                                                             Total   Maximum
                                 Maximum   Time of Max       Flood    Ponded
                        Hours       Rate    Occurrence      Volume     Depth
  Node                 Flooded       CMS   days hr:min    10^6 ltr    Meters
  --------------------------------------------------------------------------
  CSO7                    0.16     0.016      0  03:01       0.005     0.000
  CSO9                    0.01     0.001      0  03:01       0.000     0.000
  CSO8                    0.03     0.027      0  03:01       0.002     0.000
  CSO10                   0.04     0.016      0  03:01       0.001     0.000
  T6                      2.01     0.494      0  03:05       0.759     0.000
  T1                      0.65     0.633      0  03:03       0.520     0.000
  
  
  **********************
  Storage Volume Summary
  **********************
  
  --------------------------------------------------------------------------------------------------
                         Average     Avg  Evap Exfil       Maximum     Max    Time of Max    Maximum
                          Volume    Pcnt  Pcnt  Pcnt        Volume    Pcnt     Occurrence    Outflow
  Storage Unit           1000 m3    Full  Loss  Loss       1000 m3    Full    days hr:min        CMS
  --------------------------------------------------------------------------------------------------
  T5                       0.305      61     0     0         0.472      94       0  04:05      0.038
  T4                       0.264      53     0     0         0.412      82       0  05:04      0.025
  T6                       0.404      67     0     0         0.600     100       0  03:05      0.075
  T3                       1.438      55     0     0         2.353      91       0  07:50      0.057
  T2                       0.490      49     0     0         0.739      74       0  04:45      0.029
  T1                       0.395      56     0     0         0.700     100       0  03:02      0.271
  
  
  ***********************
  Outfall Loading Summary
  ***********************
  
  -----------------------------------------------------------
                         Flow       Avg       Max       Total
                         Freq      Flow      Flow      Volume
  Outfall Node           Pcnt       CMS       CMS    10^6 ltr
  -----------------------------------------------------------
  Out_to_WWTP           99.01     0.184     0.271       5.127
  -----------------------------------------------------------
  System                99.01     0.184     0.271       5.127
  
  
  ********************
  Link Flow Summary
  ********************
  
  -----------------------------------------------------------------------------
                                 Maximum  Time of Max   Maximum    Max/    Max/
                                  |Flow|   Occurrence   |Veloc|    Full    Full
  Link                 Type          CMS  days hr:min     m/sec    Flow   Depth
  -----------------------------------------------------------------------------
  C1                   CONDUIT     0.038     0  04:07      1.05    0.01    0.09
  C6                   CONDUIT     0.071     0  03:01      1.29    1.12    0.74
  C2                   CONDUIT     0.025     0  05:06      0.96    0.03    0.15
  C9                   CONDUIT     0.117     0  03:02      1.27    0.40    0.48
  C16                  CONDUIT     0.479     0  03:02      1.75    0.05    0.14
  C3                   CONDUIT     0.057     0  07:50      1.40    0.02    0.11
  C19                  CONDUIT     0.029     0  04:47      0.63    0.01    0.19
  C11                  CONDUIT     0.118     0  05:15      1.43    0.01    0.10
  C20                  CONDUIT     0.651     0  03:01      2.76    0.02    0.13
  C22                  CONDUIT     0.201     0  03:02      1.59    0.09    0.30
  C12                  CONDUIT     0.075     0  04:23      1.00    0.01    0.16
  C17                  CONDUIT     0.830     0  03:01      2.96    0.04    0.15
  C10                  CONDUIT     0.616     0  03:02      1.66    0.06    0.59
  C13                  CONDUIT     0.866     0  03:03      1.45    0.05    0.63
  C18                  CONDUIT     0.444     0  03:01      1.72    0.02    0.54
  C23                  CONDUIT     0.904     0  03:03      1.24    0.10    0.61
  C4                   CONDUIT     0.314     0  03:01      1.98    0.08    0.59
  C7                   CONDUIT     0.182     0  03:01      1.43    0.04    0.57
  C14                  CONDUIT     0.271     0  03:04      2.08    0.02    0.09
  C5                   CONDUIT     0.072     0  02:56      1.41    1.23    1.00
  C8                   CONDUIT     0.125     0  03:01      1.76    1.58    0.85
  C15                  CONDUIT     0.486     0  03:01      3.43    1.54    0.83
  C21                  CONDUIT     0.202     0  03:01      1.83    1.16    0.69
  V4                   ORIFICE     0.025     0  05:04                      0.35
  V5                   ORIFICE     0.038     0  04:05                      1.00
  V1                   ORIFICE     0.271     0  03:02                      1.00
  V6                   ORIFICE     0.075     0  03:05                      0.43
  V3                   ORIFICE     0.057     0  07:50                      0.65
  V2                   ORIFICE     0.029     0  04:45                      0.24
  
  
  ***************************
  Flow Classification Summary
  ***************************
  
  -------------------------------------------------------------------------------------
                      Adjusted    ---------- Fraction of Time in Flow Class ---------- 
                       /Actual         Up    Down  Sub   Sup   Up    Down  Norm  Inlet 
  Conduit               Length    Dry  Dry   Dry   Crit  Crit  Crit  Crit  Ltd   Ctrl  
  -------------------------------------------------------------------------------------
  C1                      1.00   0.00  0.00  0.00  0.00  1.00  0.00  0.00  0.93  0.00
  C6                      1.00   0.00  0.00  0.00  0.07  0.93  0.00  0.00  0.00  0.00
  C2                      1.00   0.00  0.00  0.00  0.26  0.74  0.00  0.00  0.97  0.00
  C9                      1.00   0.00  0.00  0.00  1.00  0.00  0.00  0.00  1.00  0.00
  C16                     1.00   0.00  0.00  0.00  0.57  0.43  0.00  0.00  0.42  0.00
  C3                      1.00   0.00  0.00  0.00  0.04  0.95  0.00  0.00  0.81  0.00
  C19                     1.00   0.00  0.00  0.00  1.00  0.00  0.00  0.00  1.00  0.00
  C11                     1.00   0.00  0.00  0.00  0.35  0.64  0.00  0.00  1.00  0.00
  C20                     1.00   0.00  0.00  0.00  0.52  0.48  0.00  0.00  0.98  0.00
  C22                     1.00   0.00  0.00  0.00  0.76  0.24  0.00  0.00  1.00  0.00
  C12                     1.00   0.00  0.00  0.00  0.93  0.07  0.00  0.00  1.00  0.00
  C17                     1.00   0.00  0.00  0.00  0.43  0.57  0.00  0.00  0.97  0.00
  C10                     1.00   0.00  0.00  0.00  0.96  0.04  0.00  0.00  0.97  0.00
  C13                     1.00   0.00  0.00  0.00  0.88  0.12  0.00  0.00  0.47  0.00
  C18                     1.00   0.00  0.00  0.00  0.94  0.06  0.00  0.00  0.97  0.00
  C23                     1.00   0.00  0.00  0.00  0.87  0.13  0.00  0.00  0.94  0.00
  C4                      1.00   0.00  0.00  0.00  0.96  0.04  0.00  0.00  0.98  0.00
  C7                      1.00   0.00  0.00  0.00  0.95  0.05  0.00  0.00  0.97  0.00
  C14                     1.00   0.00  0.00  0.00  0.00  0.99  0.00  0.00  0.33  0.00
  C5                      1.00   0.00  0.00  0.00  0.89  0.11  0.00  0.00  0.93  0.00
  C8                      1.00   0.00  0.00  0.00  0.08  0.92  0.00  0.00  0.00  0.00
  C15                     1.00   0.00  0.00  0.00  0.00  1.00  0.00  0.00  0.00  0.00
  C21                     1.00   0.00  0.00  0.00  0.00  1.00  0.00  0.00  0.00  0.00
  
  
  *************************
  Conduit Surcharge Summary
  *************************
  
  ----------------------------------------------------------------------------
                                                           Hours        Hours 
                         --------- Hours Full --------   Above Full   Capacity
  Conduit                Both Ends  Upstream  Dnstream   Normal Flow   Limited
  ----------------------------------------------------------------------------
  C6                          0.01      0.31      0.01      0.21         0.01
  C10                         0.01      0.01      5.57      0.01         0.01
  C13                         0.01      0.01      4.96      0.01         0.01
  C18                         0.01      0.01      5.05      0.01         0.01
  C23                         0.01      0.01      5.64      0.01         0.01
  C4                          0.01      0.01      5.81      0.01         0.01
  C7                          0.01      0.01      5.57      0.01         0.01
  C5                          0.34      0.34      0.44      0.40         0.31
  C8                          0.01      0.36      0.01      0.39         0.01
  C15                         0.01      0.32      0.01      0.39         0.01
  C21                         0.01      0.13      0.01      0.13         0.01
  

  Analysis begun on:  Fri Sep  3 16:09:45 2021
  Analysis ended on:  Fri Sep  3 16:09:45 2021
  Total elapsed time: < 1 sec