
  EPA STORM WATER MANAGEMENT MODEL - VERSION 5.1 (Build 5.3.0.dev0)
  --------------------------------------------------------------

  
  *********************************************************
  NOTE: The summary statistics displayed in this report are
  based on results found at every computational time step,  
  not just on results from each reporting time step.
  *********************************************************
  
  ****************
  Analysis Options
  ****************
  Flow Units ............... CMS
  Process Models:
    Rainfall/Runoff ........ YES
    RDII ................... NO
    Snowmelt ............... NO
    Groundwater ............ NO
    Flow Routing ........... YES
    Ponding Allowed ........ YES
    Water Quality .......... NO
  Infiltration Method ...... HORTON
  Flow Routing Method ...... DYNWAVE
  Surcharge Method ......... EXTRAN
  Starting Date ............ 08/28/2015 08:00:00
  Ending Date .............. 08/28/2015 15:50:00
  Antecedent Dry Days ...... 0.0
  Report Time Step ......... 00:01:00
  Wet Time Step ............ 00:01:00
  Dry Time Step ............ 00:01:00
  Routing Time Step ........ 5.00 sec
  Variable Time Step ....... YES
  Maximum Trials ........... 8
  Number of Threads ........ 1
  Head Tolerance ........... 0.001500 m
  
  
  **************************        Volume         Depth
  Runoff Quantity Continuity     hectare-m            mm
  **************************     ---------       -------
  Total Precipitation ......         2.785        15.457
  Evaporation Loss .........         0.000         0.000
  Infiltration Loss ........         0.000         0.000
  Surface Runoff ...........         2.762        15.326
  Final Storage ............         0.024         0.131
  Continuity Error (%) .....        -0.006
  
  
  **************************        Volume        Volume
  Flow Routing Continuity        hectare-m      10^6 ltr
  **************************     ---------     ---------
  Dry Weather Inflow .......         0.396         3.956
  Wet Weather Inflow .......         2.762        27.618
  Groundwater Inflow .......         0.000         0.000
  RDII Inflow ..............         0.000         0.000
  External Inflow ..........         0.000         0.000
  External Outflow .........         0.571         5.707
  Flooding Loss ............         1.543        15.432
  Evaporation Loss .........         0.000         0.000
  Exfiltration Loss ........         0.000         0.000
  Initial Stored Volume ....         0.000         0.000
  Final Stored Volume ......         0.805         8.046
  Continuity Error (%) .....         7.564
  
  
  *************************
  Highest Continuity Errors
  *************************
  Node T2 (22.01%)
  Node T3 (18.16%)
  Node T4 (16.50%)
  Node T5 (13.38%)
  Node T6 (10.38%)
  
  
  ***************************
  Time-Step Critical Elements
  ***************************
  None
  
  
  ********************************
  Highest Flow Instability Indexes
  ********************************
  Link C13 (1)
  
  
  *************************
  Routing Time Step Summary
  *************************
  Minimum Time Step           :     1.61 sec
  Average Time Step           :     5.00 sec
  Maximum Time Step           :     5.00 sec
  Percent in Steady State     :     0.00
  Average Iterations per Step :     2.18
  Percent Not Converging      :     0.57
  
  
  ***************************
  Subcatchment Runoff Summary
  ***************************
  
  ------------------------------------------------------------------------------------------------------------------------------
                            Total      Total      Total      Total     Imperv       Perv      Total       Total     Peak  Runoff
                           Precip      Runon       Evap      Infil     Runoff     Runoff     Runoff      Runoff   Runoff   Coeff
  Subcatchment                 mm         mm         mm         mm         mm         mm         mm    10^6 ltr      CMS
  ------------------------------------------------------------------------------------------------------------------------------
  SC01                      15.46       0.00       0.00       0.00      15.37       0.00      15.37        5.07     1.28   0.994
  SC02                      15.46       0.00       0.00       0.00      15.37       0.00      15.37        3.50     0.87   0.994
  SC03                      15.46       0.00       0.00       0.00      15.39       0.00      15.39        2.77     0.73   0.996
  SC04                      15.46       0.00       0.00       0.00      15.26       0.00      15.26        1.05     0.23   0.987
  SC05                      15.46       0.00       0.00       0.00      15.37       0.00      15.37        2.40     0.60   0.994
  SC06                      15.46       0.00       0.00       0.00      15.21       0.00      15.21        4.95     1.02   0.984
  SC07                      15.46       0.00       0.00       0.00      15.26       0.00      15.26        0.72     0.16   0.987
  SC08                      15.46       0.00       0.00       0.00      15.34       0.00      15.34        4.30     1.03   0.992
  SC09                      15.46       0.00       0.00       0.00      15.31       0.00      15.31        1.06     0.24   0.991
  SC010                     15.46       0.00       0.00       0.00      15.34       0.00      15.34        1.80     0.43   0.993
  
  
  ******************
  Node Depth Summary
  ******************
  
  ---------------------------------------------------------------------------------
                                 Average  Maximum  Maximum  Time of Max    Reported
                                   Depth    Depth      HGL   Occurrence   Max Depth
  Node                 Type       Meters   Meters   Meters  days hr:min      Meters
  ---------------------------------------------------------------------------------
  J1                   JUNCTION     0.09     0.26    34.26     0  02:10        0.26
  J3                   JUNCTION     0.10     0.11    18.11     0  03:26        0.11
  CSO7                 JUNCTION     0.30     1.20    35.20     0  01:45        1.20
  J5                   JUNCTION     0.08     0.19    32.19     0  02:13        0.19
  CSO9                 JUNCTION     0.42     2.00    42.00     0  01:48        2.00
  J8                   JUNCTION     0.14     0.35    36.35     0  02:15        0.35
  CSO8                 JUNCTION     0.44     2.00    34.00     0  01:45        2.00
  J10                  JUNCTION     0.12     0.33    29.33     0  02:09        0.33
  J13                  JUNCTION     0.08     0.25    29.25     0  02:10        0.25
  J15                  JUNCTION     0.18     0.43    15.43     0  02:12        0.43
  J16                  JUNCTION     0.09     0.28    30.28     0  02:09        0.28
  CSO10                JUNCTION     0.25     1.00    31.00     0  01:41        1.00
  J12                  JUNCTION     0.73     1.07    27.07     0  02:52        1.07
  J4                   JUNCTION     0.22     1.30    34.30     0  01:45        0.75
  J6                   JUNCTION     0.06     0.07    25.07     0  03:21        0.07
  J2                   JUNCTION     0.07     0.08    25.08     0  02:59        0.08
  J19                  JUNCTION     0.14     0.17     8.17     0  02:03        0.17
  J9                   JUNCTION     0.10     0.11    29.11     0  03:52        0.11
  J14                  JUNCTION     0.09     0.11    20.11     0  01:50        0.11
  J17                  JUNCTION     0.06     0.08    20.08     0  03:24        0.08
  J7                   JUNCTION     0.10     0.23    39.23     0  02:54        0.23
  J11                  JUNCTION     0.12     0.30    31.30     0  02:54        0.30
  J18                  JUNCTION     0.07     0.16    29.16     0  02:22        0.16
  Out_to_WWTP          OUTFALL      0.14     0.17     6.17     0  03:54        0.17
  T5                   STORAGE      3.68     5.00    32.00     0  02:10        5.00
  T4                   STORAGE      3.64     5.00    32.00     0  02:32        5.00
  T6                   STORAGE      3.79     5.00    36.00     0  02:06        5.00
  T3                   STORAGE      3.69     5.00    27.00     0  02:46        5.00
  T2                   STORAGE      3.72     5.00    26.00     0  02:20        5.00
  T1                   STORAGE      3.36     5.00    15.00     0  02:01        5.00
  
  
  *******************
  Node Inflow Summary
  *******************
  
  -------------------------------------------------------------------------------------------------
                                  Maximum  Maximum                  Lateral       Total        Flow
                                  Lateral    Total  Time of Max      Inflow      Inflow     Balance
                                   Inflow   Inflow   Occurrence      Volume      Volume       Error
  Node                 Type           CMS      CMS  days hr:min    10^6 ltr    10^6 ltr     Percent
  -------------------------------------------------------------------------------------------------
  J1                   JUNCTION     0.619    0.619     0  02:10        2.96        2.96       0.003
  J3                   JUNCTION     0.000    0.127     0  03:21           0        2.85       1.019
  CSO7                 JUNCTION     0.168    0.168     0  02:13        1.02        1.02       0.046
  J5                   JUNCTION     0.233    0.306     0  02:13        1.18        1.95       0.074
  CSO9                 JUNCTION     0.251    0.251     0  02:11        1.25        1.25       0.034
  J8                   JUNCTION     1.056    1.184     0  02:14        5.89        6.91       0.063
  CSO8                 JUNCTION     1.037    1.037     0  02:11        4.59        4.59       0.010
  J10                  JUNCTION     0.749    1.234     0  02:08        3.16        6.71      -0.050
  J13                  JUNCTION     0.891    0.891     0  02:10        3.96        3.96      -0.137
  J15                  JUNCTION     0.000    1.630     0  02:10           0        10.7       0.632
  J16                  JUNCTION     1.304    1.304     0  02:09        5.63        5.63      -0.016
  CSO10                JUNCTION     0.439    0.439     0  02:10        1.94        1.94       0.014
  J12                  JUNCTION     0.000    1.302     0  02:09           0        8.43      10.735
  J4                   JUNCTION     0.000    0.074     0  01:45           0       0.771       0.430
  J6                   JUNCTION     0.000    0.028     0  02:32           0       0.602       0.672
  J2                   JUNCTION     0.000    0.039     0  02:10           0       0.883       0.577
  J19                  JUNCTION     0.000    0.271     0  02:01           0        5.72       0.182
  J9                   JUNCTION     0.000    0.075     0  02:07           0        1.72       1.026
  J14                  JUNCTION     0.000    0.063     0  01:50           0        1.38       0.317
  J17                  JUNCTION     0.000    0.033     0  02:20           0       0.727       0.977
  J7                   JUNCTION     0.000    0.127     0  02:54           0        1.02       0.305
  J11                  JUNCTION     0.000    0.487     0  02:54           0        3.56       0.184
  J18                  JUNCTION     0.000    0.202     0  02:22           0         1.5       0.055
  Out_to_WWTP          OUTFALL      0.000    0.271     0  02:03           0        5.71       0.000
  T5                   STORAGE      0.000    0.618     0  02:10           0        2.96      15.451
  T4                   STORAGE      0.000    0.306     0  02:13           0        1.95      19.765
  T6                   STORAGE      0.000    1.183     0  02:15           0         6.9      11.578
  T3                   STORAGE      0.000    1.357     0  02:55           0        7.62      22.185
  T2                   STORAGE      0.000    0.891     0  02:10           0        3.97      28.224
  T1                   STORAGE      0.000    1.604     0  02:13           0        10.6       4.918
  
  
  **********************
  Node Surcharge Summary
  **********************
  
  Surcharging occurs when water rises above the top of the highest conduit.
  ---------------------------------------------------------------------
                                               Max. Height   Min. Depth
                                   Hours       Above Crown    Below Rim
  Node                 Type      Surcharged         Meters       Meters
  ---------------------------------------------------------------------
  CSO7                 JUNCTION        1.54          0.945        0.000
  CSO9                 JUNCTION        1.55          1.682        0.000
  CSO8                 JUNCTION        1.54          1.547        0.000
  CSO10                JUNCTION        1.35          0.560        0.000
  J4                   JUNCTION        1.51          0.996        0.704
  
  
  *********************
  Node Flooding Summary
  *********************
  
  Flooding refers to all water that overflows a node, whether it ponds or not.
  --------------------------------------------------------------------------
                                                             Total   Maximum
                                 Maximum   Time of Max       Flood    Ponded
                        Hours       Rate    Occurrence      Volume     Depth
  Node                 Flooded       CMS   days hr:min    10^6 ltr    Meters
  --------------------------------------------------------------------------
  CSO7                    1.36     0.095      0  02:13       0.244     0.000
  CSO9                    1.10     0.123      0  02:11       0.232     0.000
  CSO8                    1.15     0.551      0  02:11       1.030     0.000
  CSO10                   1.17     0.236      0  02:10       0.444     0.000
  T5                      1.74     0.579      0  02:10       1.279     0.000
  T4                      2.33     0.231      0  02:32       0.582     0.000
  T6                      3.01     1.108      0  02:15       3.956     0.000
  T3                      4.57     1.297      0  02:55       2.238     0.000
  T2                      1.99     0.724      0  02:20       1.452     0.000
  T1                      1.70     1.334      0  02:13       3.973     0.000
  
  
  **********************
  Storage Volume Summary
  **********************
  
  --------------------------------------------------------------------------------------------------
                         Average     Avg  Evap Exfil       Maximum     Max    Time of Max    Maximum
                          Volume    Pcnt  Pcnt  Pcnt        Volume    Pcnt     Occurrence    Outflow
  Storage Unit           1000 m3    Full  Loss  Loss       1000 m3    Full    days hr:min        CMS
  --------------------------------------------------------------------------------------------------
  T5                       0.368      74     0     0         0.500     100       0  02:10      0.039
  T4                       0.364      73     0     0         0.500     100       0  02:32      0.028
  T6                       0.454      76     0     0         0.600     100       0  02:06      0.075
  T3                       1.920      74     0     0         2.600     100       0  02:46      0.203
  T2                       0.744      74     0     0         1.000     100       0  02:20      0.033
  T1                       0.470      67     0     0         0.700     100       0  02:01      0.271
  
  
  ***********************
  Outfall Loading Summary
  ***********************
  
  -----------------------------------------------------------
                         Flow       Avg       Max       Total
                         Freq      Flow      Flow      Volume
  Outfall Node           Pcnt       CMS       CMS    10^6 ltr
  -----------------------------------------------------------
  Out_to_WWTP           99.01     0.204     0.271       5.707
  -----------------------------------------------------------
  System                99.01     0.204     0.271       5.707
  
  
  ********************
  Link Flow Summary
  ********************
  
  -----------------------------------------------------------------------------
                                 Maximum  Time of Max   Maximum    Max/    Max/
                                  |Flow|   Occurrence   |Veloc|    Full    Full
  Link                 Type          CMS  days hr:min     m/sec    Flow   Depth
  -----------------------------------------------------------------------------
  C1                   CONDUIT     0.039     0  02:59      1.11    0.01    0.10
  C6                   CONDUIT     0.073     0  02:13      1.29    1.16    0.81
  C2                   CONDUIT     0.028     0  03:21      1.01    0.03    0.16
  C9                   CONDUIT     0.127     0  02:55      1.31    0.43    0.58
  C16                  CONDUIT     0.488     0  01:55      1.79    0.05    0.16
  C3                   CONDUIT     0.062     0  01:51      1.50    0.02    0.11
  C19                  CONDUIT     0.033     0  03:24      0.69    0.01    0.25
  C11                  CONDUIT     0.127     0  03:26      1.44    0.01    0.13
  C20                  CONDUIT     1.302     0  02:09      3.57    0.04    0.18
  C22                  CONDUIT     0.202     0  02:22      1.61    0.09    0.37
  C12                  CONDUIT     0.075     0  03:52      0.59    0.01    0.30
  C17                  CONDUIT     1.229     0  02:09      3.31    0.06    0.34
  C10                  CONDUIT     1.183     0  02:15      1.66    0.12    0.62
  C13                  CONDUIT     1.357     0  02:55      1.56    0.08    0.77
  C18                  CONDUIT     0.891     0  02:10      1.72    0.03    0.56
  C23                  CONDUIT     1.604     0  02:13      1.34    0.18    0.64
  C4                   CONDUIT     0.618     0  02:10      1.98    0.15    0.63
  C7                   CONDUIT     0.306     0  02:13      1.43    0.08    0.59
  C14                  CONDUIT     0.271     0  02:03      2.08    0.02    0.09
  C5                   CONDUIT     0.074     0  01:45      1.45    1.27    1.00
  C8                   CONDUIT     0.127     0  02:54      1.75    1.60    0.86
  C15                  CONDUIT     0.487     0  02:54      3.42    1.55    0.83
  C21                  CONDUIT     0.202     0  02:22      1.83    1.16    0.69
  V4                   ORIFICE     0.028     0  02:32                      0.35
  V5                   ORIFICE     0.039     0  02:10                      1.00
  V1                   ORIFICE     0.271     0  02:01                      1.00
  V6                   ORIFICE     0.075     0  02:07                      0.43
  V3                   ORIFICE     0.063     0  01:50                      0.65
  V2                   ORIFICE     0.033     0  02:20                      0.24
  
  
  ***************************
  Flow Classification Summary
  ***************************
  
  -------------------------------------------------------------------------------------
                      Adjusted    ---------- Fraction of Time in Flow Class ---------- 
                       /Actual         Up    Down  Sub   Sup   Up    Down  Norm  Inlet 
  Conduit               Length    Dry  Dry   Dry   Crit  Crit  Crit  Crit  Ltd   Ctrl  
  -------------------------------------------------------------------------------------
  C1                      1.00   0.00  0.00  0.00  0.00  1.00  0.00  0.00  0.93  0.00
  C6                      1.00   0.00  0.00  0.00  0.22  0.78  0.00  0.00  0.00  0.00
  C2                      1.00   0.00  0.00  0.00  0.19  0.81  0.00  0.00  0.97  0.00
  C9                      1.00   0.00  0.00  0.00  1.00  0.00  0.00  0.00  1.00  0.00
  C16                     1.00   0.00  0.00  0.00  0.55  0.45  0.00  0.00  0.51  0.00
  C3                      1.00   0.00  0.00  0.00  0.04  0.95  0.00  0.00  0.82  0.00
  C19                     1.00   0.00  0.00  0.00  1.00  0.00  0.00  0.00  1.00  0.00
  C11                     1.00   0.00  0.00  0.00  0.36  0.64  0.00  0.00  1.00  0.00
  C20                     1.00   0.00  0.00  0.00  0.54  0.46  0.00  0.00  0.98  0.00
  C22                     1.00   0.00  0.00  0.00  0.78  0.22  0.00  0.00  1.00  0.00
  C12                     1.00   0.00  0.00  0.00  1.00  0.00  0.00  0.00  1.00  0.00
  C17                     1.00   0.00  0.00  0.00  0.67  0.33  0.00  0.00  0.93  0.00
  C10                     1.00   0.00  0.00  0.00  0.96  0.04  0.00  0.00  0.97  0.00
  C13                     1.00   0.00  0.00  0.00  0.82  0.17  0.00  0.00  0.22  0.00
  C18                     1.00   0.00  0.00  0.00  0.94  0.06  0.00  0.00  0.97  0.00
  C23                     1.00   0.00  0.00  0.00  0.85  0.15  0.00  0.00  0.94  0.00
  C4                      1.00   0.00  0.00  0.00  0.96  0.04  0.00  0.00  0.98  0.00
  C7                      1.00   0.00  0.00  0.00  0.95  0.05  0.00  0.00  0.97  0.00
  C14                     1.00   0.00  0.00  0.00  0.00  0.99  0.00  0.00  0.29  0.00
  C5                      1.00   0.00  0.00  0.00  0.92  0.08  0.00  0.00  0.78  0.00
  C8                      1.00   0.00  0.00  0.00  0.22  0.78  0.00  0.00  0.00  0.00
  C15                     1.00   0.00  0.00  0.00  0.00  1.00  0.00  0.00  0.00  0.00
  C21                     1.00   0.00  0.00  0.00  0.00  1.00  0.00  0.00  0.00  0.00
  
  
  *************************
  Conduit Surcharge Summary
  *************************
  
  ----------------------------------------------------------------------------
                                                           Hours        Hours 
                         --------- Hours Full --------   Above Full   Capacity
  Conduit                Both Ends  Upstream  Dnstream   Normal Flow   Limited
  ----------------------------------------------------------------------------
  C6                          0.01      1.51      0.01      1.41         0.01
  C10                         0.01      0.01      6.14      0.01         0.01
  C13                         0.01      0.01      5.83      0.01         0.01
  C18                         0.01      0.01      5.93      0.01         0.01
  C23                         0.01      0.01      6.21      0.01         0.01
  C4                          0.01      0.01      6.29      0.01         0.01
  C7                          0.01      0.01      6.11      0.01         0.01
  C5                          1.52      1.54      1.62      1.57         1.49
  C8                          0.01      1.55      0.01      1.57         0.01
  C15                         0.01      1.54      0.01      1.59         0.01
  C21                         0.01      1.35      0.01      1.36         0.01
  

  Analysis begun on:  Fri Sep  3 16:10:23 2021
  Analysis ended on:  Fri Sep  3 16:10:24 2021
  Total elapsed time: 00:00:01