
  EPA STORM WATER MANAGEMENT MODEL - VERSION 5.1 (Build 5.3.0.dev0)
  --------------------------------------------------------------

  
  *********************************************************
  NOTE: The summary statistics displayed in this report are
  based on results found at every computational time step,  
  not just on results from each reporting time step.
  *********************************************************
  
  ****************
  Analysis Options
  ****************
  Flow Units ............... CMS
  Process Models:
    Rainfall/Runoff ........ YES
    RDII ................... NO
    Snowmelt ............... NO
    Groundwater ............ NO
    Flow Routing ........... YES
    Ponding Allowed ........ YES
    Water Quality .......... NO
  Infiltration Method ...... HORTON
  Flow Routing Method ...... DYNWAVE
  Surcharge Method ......... EXTRAN
  Starting Date ............ 08/28/2015 08:00:00
  Ending Date .............. 08/28/2015 15:50:00
  Antecedent Dry Days ...... 0.0
  Report Time Step ......... 00:01:00
  Wet Time Step ............ 00:01:00
  Dry Time Step ............ 00:01:00
  Routing Time Step ........ 5.00 sec
  Variable Time Step ....... YES
  Maximum Trials ........... 8
  Number of Threads ........ 1
  Head Tolerance ........... 0.001500 m
  
  
  **************************        Volume         Depth
  Runoff Quantity Continuity     hectare-m            mm
  **************************     ---------       -------
  Total Precipitation ......         1.727         9.581
  Evaporation Loss .........         0.000         0.000
  Infiltration Loss ........         0.000         0.000
  Surface Runoff ...........         1.703         9.448
  Final Storage ............         0.024         0.134
  Continuity Error (%) .....        -0.009
  
  
  **************************        Volume        Volume
  Flow Routing Continuity        hectare-m      10^6 ltr
  **************************     ---------     ---------
  Dry Weather Inflow .......         0.396         3.955
  Wet Weather Inflow .......         1.703        17.026
  Groundwater Inflow .......         0.000         0.000
  RDII Inflow ..............         0.000         0.000
  External Inflow ..........         0.000         0.000
  External Outflow .........         0.545         5.451
  Flooding Loss ............         0.505         5.054
  Evaporation Loss .........         0.000         0.000
  Exfiltration Loss ........         0.000         0.000
  Initial Stored Volume ....         0.000         0.000
  Final Stored Volume ......         0.806         8.058
  Continuity Error (%) .....        11.523
  
  
  *************************
  Highest Continuity Errors
  *************************
  Node T2 (33.27%)
  Node T3 (22.52%)
  Node T4 (22.25%)
  Node T5 (19.68%)
  Node T6 (15.11%)
  
  
  ***************************
  Time-Step Critical Elements
  ***************************
  None
  
  
  ********************************
  Highest Flow Instability Indexes
  ********************************
  Link C13 (1)
  
  
  *************************
  Routing Time Step Summary
  *************************
  Minimum Time Step           :     4.50 sec
  Average Time Step           :     5.00 sec
  Maximum Time Step           :     5.00 sec
  Percent in Steady State     :     0.00
  Average Iterations per Step :     2.19
  Percent Not Converging      :     0.64
  
  
  ***************************
  Subcatchment Runoff Summary
  ***************************
  
  ------------------------------------------------------------------------------------------------------------------------------
                            Total      Total      Total      Total     Imperv       Perv      Total       Total     Peak  Runoff
                           Precip      Runon       Evap      Infil     Runoff     Runoff     Runoff      Runoff   Runoff   Coeff
  Subcatchment                 mm         mm         mm         mm         mm         mm         mm    10^6 ltr      CMS
  ------------------------------------------------------------------------------------------------------------------------------
  SC01                       9.58       0.00       0.00       0.00       9.49       0.00       9.49        3.13     0.98   0.991
  SC02                       9.58       0.00       0.00       0.00       9.49       0.00       9.49        2.16     0.66   0.990
  SC03                       9.58       0.00       0.00       0.00       9.51       0.00       9.51        1.71     0.57   0.993
  SC04                       9.58       0.00       0.00       0.00       9.38       0.00       9.38        0.65     0.17   0.979
  SC05                       9.58       0.00       0.00       0.00       9.49       0.00       9.49        1.48     0.45   0.990
  SC06                       9.58       0.00       0.00       0.00       9.33       0.00       9.33        3.04     0.76   0.973
  SC07                       9.58       0.00       0.00       0.00       9.38       0.00       9.38        0.45     0.12   0.979
  SC08                       9.58       0.00       0.00       0.00       9.46       0.00       9.46        2.65     0.77   0.988
  SC09                       9.58       0.00       0.00       0.00       9.44       0.00       9.44        0.65     0.18   0.985
  SC010                      9.58       0.00       0.00       0.00       9.47       0.00       9.47        1.11     0.33   0.988
  
  
  ******************
  Node Depth Summary
  ******************
  
  ---------------------------------------------------------------------------------
                                 Average  Maximum  Maximum  Time of Max    Reported
                                   Depth    Depth      HGL   Occurrence   Max Depth
  Node                 Type       Meters   Meters   Meters  days hr:min      Meters
  ---------------------------------------------------------------------------------
  J1                   JUNCTION     0.08     0.23    34.23     0  03:01        0.23
  J3                   JUNCTION     0.09     0.11    18.11     0  04:58        0.11
  CSO7                 JUNCTION     0.20     1.20    35.20     0  02:33        1.20
  J5                   JUNCTION     0.07     0.17    32.17     0  03:01        0.17
  CSO9                 JUNCTION     0.25     2.00    42.00     0  02:47        2.00
  J8                   JUNCTION     0.12     0.31    36.31     0  03:01        0.31
  CSO8                 JUNCTION     0.27     2.00    34.00     0  02:45        2.00
  J10                  JUNCTION     0.11     0.31    29.31     0  03:01        0.31
  J13                  JUNCTION     0.07     0.22    29.22     0  03:01        0.22
  J15                  JUNCTION     0.17     0.38    15.38     0  03:02        0.38
  J16                  JUNCTION     0.07     0.24    30.24     0  03:01        0.24
  CSO10                JUNCTION     0.17     1.00    31.00     0  02:44        1.00
  J12                  JUNCTION     0.62     1.01    27.01     0  05:29        1.01
  J4                   JUNCTION     0.18     1.16    34.16     0  02:33        0.78
  J6                   JUNCTION     0.06     0.07    25.07     0  04:11        0.07
  J2                   JUNCTION     0.07     0.08    25.08     0  03:44        0.08
  J19                  JUNCTION     0.14     0.17     8.17     0  02:42        0.17
  J9                   JUNCTION     0.09     0.11    29.11     0  04:23        0.11
  J14                  JUNCTION     0.09     0.11    20.11     0  02:10        0.11
  J17                  JUNCTION     0.06     0.08    20.08     0  04:10        0.08
  J7                   JUNCTION     0.09     0.23    39.23     0  03:06        0.23
  J11                  JUNCTION     0.11     0.30    31.30     0  02:49        0.30
  J18                  JUNCTION     0.06     0.16    29.16     0  03:06        0.16
  Out_to_WWTP          OUTFALL      0.14     0.17     6.17     0  04:00        0.17
  T5                   STORAGE      3.39     5.00    32.00     0  02:56        5.00
  T4                   STORAGE      3.32     5.00    32.00     0  03:24        5.00
  T6                   STORAGE      3.54     5.00    36.00     0  02:44        5.00
  T3                   STORAGE      3.33     5.00    27.00     0  05:03        5.00
  T2                   STORAGE      3.37     5.00    26.00     0  03:15        5.00
  T1                   STORAGE      3.13     5.00    15.00     0  02:40        5.00
  
  
  *******************
  Node Inflow Summary
  *******************
  
  -------------------------------------------------------------------------------------------------
                                  Maximum  Maximum                  Lateral       Total        Flow
                                  Lateral    Total  Time of Max      Inflow      Inflow     Balance
                                   Inflow   Inflow   Occurrence      Volume      Volume       Error
  Node                 Type           CMS      CMS  days hr:min    10^6 ltr    10^6 ltr     Percent
  -------------------------------------------------------------------------------------------------
  J1                   JUNCTION     0.477    0.477     0  03:01        2.04        2.04       0.018
  J3                   JUNCTION     0.000    0.127     0  04:56           0         2.7       1.064
  CSO7                 JUNCTION     0.129    0.129     0  03:01       0.736       0.736       0.061
  J5                   JUNCTION     0.176    0.247     0  03:01       0.775        1.46       0.111
  CSO9                 JUNCTION     0.190    0.190     0  03:01       0.847       0.847       0.060
  J8                   JUNCTION     0.798    0.925     0  03:01        3.98        4.79       0.106
  CSO8                 JUNCTION     0.782    0.782     0  03:01        2.94        2.94       0.019
  J10                  JUNCTION     0.582    1.068     0  03:01         2.1        4.88      -0.003
  J13                  JUNCTION     0.683    0.683     0  03:01        2.63        2.63      -0.153
  J15                  JUNCTION     0.000    1.326     0  03:01           0        8.21       0.835
  J16                  JUNCTION     1.000    1.000     0  03:01        3.69        3.69      -0.012
  CSO10                JUNCTION     0.332    0.332     0  03:01        1.25        1.25       0.028
  J12                  JUNCTION     0.000    1.118     0  03:01           0        6.94      13.357
  J4                   JUNCTION     0.000    0.072     0  03:01           0       0.685       0.497
  J6                   JUNCTION     0.000    0.028     0  03:24           0       0.561       0.721
  J2                   JUNCTION     0.000    0.039     0  02:56           0       0.838       0.611
  J19                  JUNCTION     0.000    0.271     0  02:40           0        5.46       0.191
  J9                   JUNCTION     0.000    0.075     0  02:45           0        1.65       1.038
  J14                  JUNCTION     0.000    0.060     0  05:03           0        1.32       0.333
  J17                  JUNCTION     0.000    0.033     0  03:15           0       0.671       1.013
  J7                   JUNCTION     0.000    0.127     0  03:06           0       0.817       0.383
  J11                  JUNCTION     0.000    0.486     0  02:49           0        2.79       0.228
  J18                  JUNCTION     0.000    0.202     0  03:06           0        1.18       0.077
  Out_to_WWTP          OUTFALL      0.000    0.271     0  02:42           0        5.45       0.000
  T5                   STORAGE      0.000    0.469     0  03:01           0        2.04      24.496
  T4                   STORAGE      0.000    0.243     0  03:01           0        1.45      28.613
  T6                   STORAGE      0.000    0.905     0  03:01           0        4.78      17.796
  T3                   STORAGE      0.000    1.088     0  03:02           0        6.12      29.069
  T2                   STORAGE      0.000    0.671     0  03:01           0        2.63      49.864
  T1                   STORAGE      0.000    1.253     0  03:02           0        8.14       6.622
  
  
  **********************
  Node Surcharge Summary
  **********************
  
  Surcharging occurs when water rises above the top of the highest conduit.
  ---------------------------------------------------------------------
                                               Max. Height   Min. Depth
                                   Hours       Above Crown    Below Rim
  Node                 Type      Surcharged         Meters       Meters
  ---------------------------------------------------------------------
  CSO7                 JUNCTION        0.85          0.945        0.000
  CSO9                 JUNCTION        0.88          1.682        0.000
  CSO8                 JUNCTION        0.80          1.547        0.000
  CSO10                JUNCTION        0.50          0.560        0.000
  J4                   JUNCTION        0.81          0.860        0.840
  
  
  *********************
  Node Flooding Summary
  *********************
  
  Flooding refers to all water that overflows a node, whether it ponds or not.
  --------------------------------------------------------------------------
                                                             Total   Maximum
                                 Maximum   Time of Max       Flood    Ponded
                        Hours       Rate    Occurrence      Volume     Depth
  Node                 Flooded       CMS   days hr:min    10^6 ltr    Meters
  --------------------------------------------------------------------------
  CSO7                    0.65     0.057      0  03:01       0.051     0.000
  CSO9                    0.32     0.063      0  03:01       0.030     0.000
  CSO8                    0.36     0.296      0  03:01       0.156     0.000
  CSO10                   0.37     0.130      0  03:01       0.070     0.000
  T5                      1.17     0.430      0  03:01       0.399     0.000
  T4                      1.57     0.091      0  03:24       0.127     0.000
  T6                      2.46     0.830      0  03:01       1.901     0.000
  T3                      2.43     0.227      0  05:03       0.397     0.000
  T2                      1.19     0.183      0  03:15       0.166     0.000
  T1                      1.16     0.983      0  03:02       1.757     0.000
  
  
  **********************
  Storage Volume Summary
  **********************
  
  --------------------------------------------------------------------------------------------------
                         Average     Avg  Evap Exfil       Maximum     Max    Time of Max    Maximum
                          Volume    Pcnt  Pcnt  Pcnt        Volume    Pcnt     Occurrence    Outflow
  Storage Unit           1000 m3    Full  Loss  Loss       1000 m3    Full    days hr:min        CMS
  --------------------------------------------------------------------------------------------------
  T5                       0.339      68     0     0         0.500     100       0  02:56      0.039
  T4                       0.332      66     0     0         0.500     100       0  03:24      0.028
  T6                       0.425      71     0     0         0.600     100       0  02:44      0.075
  T3                       1.732      67     0     0         2.600     100       0  05:03      0.367
  T2                       0.674      67     0     0         1.000     100       0  03:15      0.033
  T1                       0.439      63     0     0         0.700     100       0  02:40      0.271
  
  
  ***********************
  Outfall Loading Summary
  ***********************
  
  -----------------------------------------------------------
                         Flow       Avg       Max       Total
                         Freq      Flow      Flow      Volume
  Outfall Node           Pcnt       CMS       CMS    10^6 ltr
  -----------------------------------------------------------
  Out_to_WWTP           99.01     0.195     0.271       5.451
  -----------------------------------------------------------
  System                99.01     0.195     0.271       5.451
  
  
  ********************
  Link Flow Summary
  ********************
  
  -----------------------------------------------------------------------------
                                 Maximum  Time of Max   Maximum    Max/    Max/
                                  |Flow|   Occurrence   |Veloc|    Full    Full
  Link                 Type          CMS  days hr:min     m/sec    Flow   Depth
  -----------------------------------------------------------------------------
  C1                   CONDUIT     0.039     0  03:44      1.08    0.01    0.10
  C6                   CONDUIT     0.072     0  03:01      1.29    1.14    0.78
  C2                   CONDUIT     0.028     0  04:11      1.01    0.03    0.16
  C9                   CONDUIT     0.127     0  03:06      1.28    0.43    0.54
  C16                  CONDUIT     0.488     0  02:56      1.78    0.05    0.15
  C3                   CONDUIT     0.060     0  05:54      1.44    0.02    0.11
  C19                  CONDUIT     0.033     0  04:10      0.69    0.01    0.22
  C11                  CONDUIT     0.127     0  04:58      1.44    0.01    0.12
  C20                  CONDUIT     0.981     0  03:01      3.21    0.03    0.15
  C22                  CONDUIT     0.202     0  03:06      1.58    0.09    0.34
  C12                  CONDUIT     0.075     0  04:23      0.59    0.01    0.28
  C17                  CONDUIT     1.042     0  03:01      3.14    0.05    0.27
  C10                  CONDUIT     0.905     0  03:01      1.66    0.09    0.60
  C13                  CONDUIT     1.088     0  03:02      1.45    0.06    0.75
  C18                  CONDUIT     0.671     0  03:01      1.72    0.02    0.55
  C23                  CONDUIT     1.253     0  03:02      1.24    0.14    0.63
  C4                   CONDUIT     0.469     0  03:01      1.98    0.11    0.61
  C7                   CONDUIT     0.243     0  03:01      1.43    0.06    0.58
  C14                  CONDUIT     0.271     0  02:42      2.08    0.02    0.09
  C5                   CONDUIT     0.072     0  03:01      1.40    1.23    1.00
  C8                   CONDUIT     0.127     0  03:06      1.75    1.60    0.86
  C15                  CONDUIT     0.486     0  02:49      3.42    1.55    0.83
  C21                  CONDUIT     0.202     0  03:06      1.82    1.16    0.69
  V4                   ORIFICE     0.028     0  03:24                      0.35
  V5                   ORIFICE     0.039     0  02:56                      1.00
  V1                   ORIFICE     0.271     0  02:40                      1.00
  V6                   ORIFICE     0.075     0  02:45                      0.43
  V3                   ORIFICE     0.060     0  05:03                      0.65
  V2                   ORIFICE     0.033     0  03:15                      0.24
  
  
  ***************************
  Flow Classification Summary
  ***************************
  
  -------------------------------------------------------------------------------------
                      Adjusted    ---------- Fraction of Time in Flow Class ---------- 
                       /Actual         Up    Down  Sub   Sup   Up    Down  Norm  Inlet 
  Conduit               Length    Dry  Dry   Dry   Crit  Crit  Crit  Crit  Ltd   Ctrl  
  -------------------------------------------------------------------------------------
  C1                      1.00   0.00  0.00  0.00  0.00  1.00  0.00  0.00  0.93  0.00
  C6                      1.00   0.00  0.00  0.00  0.14  0.86  0.00  0.00  0.00  0.00
  C2                      1.00   0.00  0.00  0.00  0.23  0.76  0.00  0.00  0.97  0.00
  C9                      1.00   0.00  0.00  0.00  1.00  0.00  0.00  0.00  1.00  0.00
  C16                     1.00   0.00  0.00  0.00  0.54  0.46  0.00  0.00  0.38  0.00
  C3                      1.00   0.00  0.00  0.00  0.04  0.95  0.00  0.00  0.83  0.00
  C19                     1.00   0.00  0.00  0.00  1.00  0.00  0.00  0.00  1.00  0.00
  C11                     1.00   0.00  0.00  0.00  0.37  0.63  0.00  0.00  1.00  0.00
  C20                     1.00   0.00  0.00  0.00  0.52  0.48  0.00  0.00  0.98  0.00
  C22                     1.00   0.00  0.00  0.00  0.72  0.28  0.00  0.00  1.00  0.00
  C12                     1.00   0.00  0.00  0.00  1.00  0.00  0.00  0.00  1.00  0.00
  C17                     1.00   0.00  0.00  0.00  0.59  0.41  0.00  0.00  0.95  0.00
  C10                     1.00   0.00  0.00  0.00  0.96  0.04  0.00  0.00  0.97  0.00
  C13                     1.00   0.00  0.00  0.00  0.86  0.14  0.00  0.00  0.31  0.00
  C18                     1.00   0.00  0.00  0.00  0.94  0.06  0.00  0.00  0.97  0.00
  C23                     1.00   0.00  0.00  0.00  0.86  0.14  0.00  0.00  0.94  0.00
  C4                      1.00   0.00  0.00  0.00  0.96  0.04  0.00  0.00  0.98  0.00
  C7                      1.00   0.00  0.00  0.00  0.95  0.05  0.00  0.00  0.97  0.00
  C14                     1.00   0.00  0.00  0.00  0.00  0.99  0.00  0.00  0.28  0.00
  C5                      1.00   0.00  0.00  0.00  0.90  0.10  0.00  0.00  0.87  0.00
  C8                      1.00   0.00  0.00  0.00  0.16  0.84  0.00  0.00  0.00  0.00
  C15                     1.00   0.00  0.00  0.00  0.00  1.00  0.00  0.00  0.00  0.00
  C21                     1.00   0.00  0.00  0.00  0.00  1.00  0.00  0.00  0.00  0.00
  
  
  *************************
  Conduit Surcharge Summary
  *************************
  
  ----------------------------------------------------------------------------
                                                           Hours        Hours 
                         --------- Hours Full --------   Above Full   Capacity
  Conduit                Both Ends  Upstream  Dnstream   Normal Flow   Limited
  ----------------------------------------------------------------------------
  C6                          0.01      0.81      0.01      0.71         0.01
  C10                         0.01      0.01      5.82      0.01         0.01
  C13                         0.01      0.01      5.30      0.01         0.01
  C18                         0.01      0.01      5.40      0.01         0.01
  C23                         0.01      0.01      5.90      0.01         0.01
  C4                          0.01      0.01      6.03      0.01         0.01
  C7                          0.01      0.01      5.80      0.01         0.01
  C5                          0.85      0.85      0.98      0.94         0.82
  C8                          0.01      0.88      0.01      0.91         0.01
  C15                         0.01      0.80      0.01      0.91         0.01
  C21                         0.01      0.50      0.01      0.51         0.01
  

  Analysis begun on:  Fri Sep  3 15:50:10 2021
  Analysis ended on:  Fri Sep  3 15:50:10 2021
  Total elapsed time: < 1 sec