
  EPA STORM WATER MANAGEMENT MODEL - VERSION 5.1 (Build 5.3.0.dev0)
  --------------------------------------------------------------

  
  *********************************************************
  NOTE: The summary statistics displayed in this report are
  based on results found at every computational time step,  
  not just on results from each reporting time step.
  *********************************************************
  
  ****************
  Analysis Options
  ****************
  Flow Units ............... CMS
  Process Models:
    Rainfall/Runoff ........ YES
    RDII ................... NO
    Snowmelt ............... NO
    Groundwater ............ NO
    Flow Routing ........... YES
    Ponding Allowed ........ YES
    Water Quality .......... NO
  Infiltration Method ...... HORTON
  Flow Routing Method ...... DYNWAVE
  Surcharge Method ......... EXTRAN
  Starting Date ............ 08/28/2015 08:00:00
  Ending Date .............. 08/28/2015 15:50:00
  Antecedent Dry Days ...... 0.0
  Report Time Step ......... 00:01:00
  Wet Time Step ............ 00:01:00
  Dry Time Step ............ 00:01:00
  Routing Time Step ........ 5.00 sec
  Variable Time Step ....... YES
  Maximum Trials ........... 8
  Number of Threads ........ 1
  Head Tolerance ........... 0.001500 m
  
  
  **************************        Volume         Depth
  Runoff Quantity Continuity     hectare-m            mm
  **************************     ---------       -------
  Total Precipitation ......         0.519         2.878
  Evaporation Loss .........         0.000         0.000
  Infiltration Loss ........         0.000         0.000
  Surface Runoff ...........         0.497         2.756
  Final Storage ............         0.022         0.123
  Continuity Error (%) .....        -0.008
  
  
  **************************        Volume        Volume
  Flow Routing Continuity        hectare-m      10^6 ltr
  **************************     ---------     ---------
  Dry Weather Inflow .......         0.396         3.955
  Wet Weather Inflow .......         0.497         4.966
  Groundwater Inflow .......         0.000         0.000
  RDII Inflow ..............         0.000         0.000
  External Inflow ..........         0.000         0.000
  External Outflow .........         0.366         3.660
  Flooding Loss ............         0.000         0.000
  Evaporation Loss .........         0.000         0.000
  Exfiltration Loss ........         0.000         0.000
  Initial Stored Volume ....         0.000         0.000
  Final Stored Volume ......         0.465         4.647
  Continuity Error (%) .....         6.882
  
  
  *************************
  Highest Continuity Errors
  *************************
  Node T2 (32.52%)
  Node T3 (25.43%)
  Node T6 (23.85%)
  Node T4 (21.98%)
  Node T5 (21.32%)
  
  
  ***************************
  Time-Step Critical Elements
  ***************************
  None
  
  
  ********************************
  Highest Flow Instability Indexes
  ********************************
  All links are stable.
  
  
  *************************
  Routing Time Step Summary
  *************************
  Minimum Time Step           :     4.50 sec
  Average Time Step           :     5.00 sec
  Maximum Time Step           :     5.00 sec
  Percent in Steady State     :     0.00
  Average Iterations per Step :     2.00
  Percent Not Converging      :     0.00
  
  
  ***************************
  Subcatchment Runoff Summary
  ***************************
  
  ------------------------------------------------------------------------------------------------------------------------------
                            Total      Total      Total      Total     Imperv       Perv      Total       Total     Peak  Runoff
                           Precip      Runon       Evap      Infil     Runoff     Runoff     Runoff      Runoff   Runoff   Coeff
  Subcatchment                 mm         mm         mm         mm         mm         mm         mm    10^6 ltr      CMS
  ------------------------------------------------------------------------------------------------------------------------------
  SC01                       2.88       0.00       0.00       0.00       2.79       0.00       2.79        0.92     0.18   0.971
  SC02                       2.88       0.00       0.00       0.00       2.79       0.00       2.79        0.63     0.12   0.969
  SC03                       2.88       0.00       0.00       0.00       2.81       0.00       2.81        0.51     0.10   0.976
  SC04                       2.88       0.00       0.00       0.00       2.70       0.00       2.70        0.19     0.03   0.938
  SC05                       2.88       0.00       0.00       0.00       2.79       0.00       2.79        0.44     0.08   0.969
  SC06                       2.88       0.00       0.00       0.00       2.66       0.00       2.66        0.86     0.14   0.923
  SC07                       2.88       0.00       0.00       0.00       2.70       0.00       2.70        0.13     0.02   0.938
  SC08                       2.88       0.00       0.00       0.00       2.77       0.00       2.77        0.77     0.14   0.961
  SC09                       2.88       0.00       0.00       0.00       2.74       0.00       2.74        0.19     0.03   0.953
  SC010                      2.88       0.00       0.00       0.00       2.77       0.00       2.77        0.33     0.06   0.962
  
  
  ******************
  Node Depth Summary
  ******************
  
  ---------------------------------------------------------------------------------
                                 Average  Maximum  Maximum  Time of Max    Reported
                                   Depth    Depth      HGL   Occurrence   Max Depth
  Node                 Type       Meters   Meters   Meters  days hr:min      Meters
  ---------------------------------------------------------------------------------
  J1                   JUNCTION     0.06     0.11    34.11     0  03:01        0.11
  J3                   JUNCTION     0.08     0.10    18.10     0  03:01        0.10
  CSO7                 JUNCTION     0.09     0.14    34.14     0  03:01        0.14
  J5                   JUNCTION     0.05     0.09    32.09     0  03:02        0.09
  CSO9                 JUNCTION     0.09     0.17    40.17     0  03:01        0.17
  J8                   JUNCTION     0.09     0.15    36.15     0  03:02        0.15
  CSO8                 JUNCTION     0.10     0.23    32.23     0  03:01        0.23
  J10                  JUNCTION     0.08     0.16    29.16     0  03:01        0.16
  J13                  JUNCTION     0.05     0.10    29.10     0  03:01        0.10
  J15                  JUNCTION     0.13     0.20    15.20     0  03:03        0.20
  J16                  JUNCTION     0.06     0.11    30.11     0  03:01        0.11
  CSO10                JUNCTION     0.09     0.21    30.21     0  03:01        0.21
  J12                  JUNCTION     0.11     0.19    26.19     0  03:03        0.19
  J4                   JUNCTION     0.11     0.17    33.17     0  03:03        0.17
  J6                   JUNCTION     0.05     0.06    25.06     0  06:03        0.06
  J2                   JUNCTION     0.06     0.07    25.07     0  05:03        0.07
  J19                  JUNCTION     0.11     0.15     8.15     0  03:34        0.15
  J9                   JUNCTION     0.08     0.10    29.10     0  05:18        0.10
  J14                  JUNCTION     0.08     0.11    20.11     0  03:00        0.11
  J17                  JUNCTION     0.05     0.06    20.06     0  06:02        0.06
  J7                   JUNCTION     0.07     0.13    39.13     0  03:02        0.13
  J11                  JUNCTION     0.08     0.17    31.17     0  03:02        0.17
  J18                  JUNCTION     0.04     0.09    29.09     0  03:02        0.09
  Out_to_WWTP          OUTFALL      0.11     0.15     6.15     0  03:34        0.15
  T5                   STORAGE      1.59     2.35    29.35     0  05:01        2.35
  T4                   STORAGE      1.47     2.26    29.26     0  06:01        2.26
  T6                   STORAGE      2.22     3.47    34.47     0  05:15        3.47
  T3                   STORAGE      1.51     2.80    24.80     0  07:50        2.80
  T2                   STORAGE      1.22     1.80    22.80     0  06:00        1.80
  T1                   STORAGE      1.43     2.61    12.61     0  03:33        2.61
  
  
  *******************
  Node Inflow Summary
  *******************
  
  -------------------------------------------------------------------------------------------------
                                  Maximum  Maximum                  Lateral       Total        Flow
                                  Lateral    Total  Time of Max      Inflow      Inflow     Balance
                                   Inflow   Inflow   Occurrence      Volume      Volume       Error
  Node                 Type           CMS      CMS  days hr:min    10^6 ltr    10^6 ltr     Percent
  -------------------------------------------------------------------------------------------------
  J1                   JUNCTION     0.107    0.107     0  03:01       0.997       0.997       0.075
  J3                   JUNCTION     0.000    0.091     0  03:00           0        1.87       1.217
  CSO7                 JUNCTION     0.034    0.034     0  03:01       0.419       0.419       0.107
  J5                   JUNCTION     0.037    0.069     0  03:01       0.314       0.728       0.243
  CSO9                 JUNCTION     0.042    0.042     0  03:01       0.386       0.386       0.114
  J8                   JUNCTION     0.180    0.220     0  03:01        1.81        2.19       0.253
  CSO8                 JUNCTION     0.155    0.155     0  03:01        1.07        1.07       0.051
  J10                  JUNCTION     0.117    0.267     0  03:01       0.891        1.95       0.291
  J13                  JUNCTION     0.141    0.141     0  03:01         1.1         1.1      -0.202
  J15                  JUNCTION     0.000    0.361     0  03:01           0        4.18       1.321
  J16                  JUNCTION     0.202    0.202     0  03:01        1.48        1.48       0.062
  CSO10                JUNCTION     0.067    0.067     0  03:01       0.465       0.465       0.092
  J12                  JUNCTION     0.000    0.310     0  03:01           0        3.24       0.748
  J4                   JUNCTION     0.000    0.034     0  03:01           0       0.418       0.899
  J6                   JUNCTION     0.000    0.019     0  06:02           0       0.357       0.870
  J2                   JUNCTION     0.000    0.027     0  05:01           0        0.58       0.682
  J19                  JUNCTION     0.000    0.195     0  03:33           0        3.67       0.215
  J9                   JUNCTION     0.000    0.063     0  05:15           0         1.3       1.130
  J14                  JUNCTION     0.000    0.060     0  03:00           0       0.939       0.379
  J17                  JUNCTION     0.000    0.020     0  06:00           0         0.4       1.116
  J7                   JUNCTION     0.000    0.042     0  03:01           0       0.385       0.840
  J11                  JUNCTION     0.000    0.155     0  03:01           0        1.07       0.538
  J18                  JUNCTION     0.000    0.066     0  03:01           0       0.464       0.262
  Out_to_WWTP          OUTFALL      0.000    0.195     0  03:34           0        3.66       0.000
  T5                   STORAGE      0.000    0.105     0  03:01           0       0.996      27.102
  T4                   STORAGE      0.000    0.068     0  03:02           0       0.727      28.178
  T6                   STORAGE      0.000    0.216     0  03:02           0        2.18      31.326
  T3                   STORAGE      0.000    0.304     0  03:04           0        3.21      34.101
  T2                   STORAGE      0.000    0.139     0  03:01           0         1.1      48.191
  T1                   STORAGE      0.000    0.351     0  03:03           0        4.12       6.736
  
  
  **********************
  Node Surcharge Summary
  **********************
  
  No nodes were surcharged.
  
  
  *********************
  Node Flooding Summary
  *********************
  
  No nodes were flooded.
  
  
  **********************
  Storage Volume Summary
  **********************
  
  --------------------------------------------------------------------------------------------------
                         Average     Avg  Evap Exfil       Maximum     Max    Time of Max    Maximum
                          Volume    Pcnt  Pcnt  Pcnt        Volume    Pcnt     Occurrence    Outflow
  Storage Unit           1000 m3    Full  Loss  Loss       1000 m3    Full    days hr:min        CMS
  --------------------------------------------------------------------------------------------------
  T5                       0.159      32     0     0         0.235      47       0  05:01      0.027
  T4                       0.147      29     0     0         0.226      45       0  06:01      0.019
  T6                       0.266      44     0     0         0.416      69       0  05:15      0.063
  T3                       0.784      30     0     0         1.456      56       0  07:50      0.060
  T2                       0.244      24     0     0         0.360      36       0  06:00      0.020
  T1                       0.200      29     0     0         0.365      52       0  03:33      0.195
  
  
  ***********************
  Outfall Loading Summary
  ***********************
  
  -----------------------------------------------------------
                         Flow       Avg       Max       Total
                         Freq      Flow      Flow      Volume
  Outfall Node           Pcnt       CMS       CMS    10^6 ltr
  -----------------------------------------------------------
  Out_to_WWTP           99.01     0.131     0.195       3.660
  -----------------------------------------------------------
  System                99.01     0.131     0.195       3.660
  
  
  ********************
  Link Flow Summary
  ********************
  
  -----------------------------------------------------------------------------
                                 Maximum  Time of Max   Maximum    Max/    Max/
                                  |Flow|   Occurrence   |Veloc|    Full    Full
  Link                 Type          CMS  days hr:min     m/sec    Flow   Depth
  -----------------------------------------------------------------------------
  C1                   CONDUIT     0.027     0  05:03      0.94    0.01    0.08
  C6                   CONDUIT     0.032     0  03:03      1.13    0.52    0.43
  C2                   CONDUIT     0.019     0  06:03      0.88    0.02    0.13
  C9                   CONDUIT     0.041     0  03:03      0.90    0.14    0.28
  C16                  CONDUIT     0.152     0  03:02      1.23    0.01    0.08
  C3                   CONDUIT     0.060     0  03:00      1.44    0.02    0.10
  C19                  CONDUIT     0.020     0  06:02      0.54    0.01    0.12
  C11                  CONDUIT     0.089     0  03:01      1.30    0.00    0.07
  C20                  CONDUIT     0.199     0  03:01      1.75    0.01    0.08
  C22                  CONDUIT     0.065     0  03:02      1.02    0.03    0.18
  C12                  CONDUIT     0.063     0  05:18      1.02    0.00    0.07
  C17                  CONDUIT     0.262     0  03:01      2.00    0.01    0.09
  C10                  CONDUIT     0.216     0  03:02      1.66    0.02    0.55
  C13                  CONDUIT     0.304     0  03:04      1.45    0.02    0.53
  C18                  CONDUIT     0.139     0  03:01      1.72    0.01    0.46
  C23                  CONDUIT     0.351     0  03:03      1.24    0.04    0.57
  C4                   CONDUIT     0.105     0  03:01      1.98    0.03    0.55
  C7                   CONDUIT     0.068     0  03:02      1.43    0.02    0.54
  C14                  CONDUIT     0.195     0  03:34      1.88    0.01    0.07
  C5                   CONDUIT     0.034     0  03:01      1.22    0.58    0.59
  C8                   CONDUIT     0.042     0  03:01      1.16    0.53    0.47
  C15                  CONDUIT     0.155     0  03:01      2.24    0.49    0.44
  C21                  CONDUIT     0.066     0  03:01      1.45    0.38    0.34
  V4                   ORIFICE     0.019     0  06:02                      0.35
  V5                   ORIFICE     0.027     0  05:01                      1.00
  V1                   ORIFICE     0.195     0  03:33                      1.00
  V6                   ORIFICE     0.063     0  05:15                      0.43
  V3                   ORIFICE     0.060     0  03:00                      0.65
  V2                   ORIFICE     0.020     0  06:00                      0.24
  
  
  ***************************
  Flow Classification Summary
  ***************************
  
  -------------------------------------------------------------------------------------
                      Adjusted    ---------- Fraction of Time in Flow Class ---------- 
                       /Actual         Up    Down  Sub   Sup   Up    Down  Norm  Inlet 
  Conduit               Length    Dry  Dry   Dry   Crit  Crit  Crit  Crit  Ltd   Ctrl  
  -------------------------------------------------------------------------------------
  C1                      1.00   0.00  0.00  0.00  0.00  1.00  0.00  0.00  0.93  0.00
  C6                      1.00   0.00  0.00  0.00  0.01  0.99  0.00  0.00  0.00  0.00
  C2                      1.00   0.00  0.00  0.00  0.34  0.66  0.00  0.00  0.97  0.00
  C9                      1.00   0.00  0.00  0.00  1.00  0.00  0.00  0.00  1.00  0.00
  C16                     1.00   0.00  0.00  0.00  0.64  0.36  0.00  0.00  0.54  0.00
  C3                      1.00   0.00  0.00  0.00  0.04  0.95  0.00  0.00  0.79  0.00
  C19                     1.00   0.00  0.00  0.00  1.00  0.00  0.00  0.00  1.00  0.00
  C11                     1.00   0.00  0.00  0.00  0.35  0.65  0.00  0.00  1.00  0.00
  C20                     1.00   0.00  0.00  0.00  0.52  0.48  0.00  0.00  0.98  0.00
  C22                     1.00   0.00  0.00  0.00  0.95  0.05  0.00  0.00  1.00  0.00
  C12                     1.00   0.00  0.00  0.00  0.49  0.50  0.00  0.00  1.00  0.00
  C17                     1.00   0.00  0.00  0.00  0.35  0.65  0.00  0.00  0.97  0.00
  C10                     1.00   0.00  0.00  0.00  0.96  0.04  0.00  0.00  0.97  0.00
  C13                     1.00   0.00  0.00  0.00  0.87  0.13  0.00  0.00  0.90  0.00
  C18                     1.00   0.00  0.00  0.00  0.94  0.06  0.00  0.00  0.97  0.00
  C23                     1.00   0.00  0.00  0.00  0.88  0.12  0.00  0.00  0.94  0.00
  C4                      1.00   0.00  0.00  0.00  0.96  0.04  0.00  0.00  0.98  0.00
  C7                      1.00   0.00  0.00  0.00  0.95  0.05  0.00  0.00  0.97  0.00
  C14                     1.00   0.00  0.00  0.00  0.00  0.99  0.00  0.00  0.58  0.00
  C5                      1.00   0.00  0.00  0.00  0.90  0.10  0.00  0.00  0.98  0.00
  C8                      1.00   0.00  0.00  0.00  0.00  1.00  0.00  0.00  0.00  0.00
  C15                     1.00   0.00  0.00  0.00  0.00  1.00  0.00  0.00  0.00  0.00
  C21                     1.00   0.00  0.00  0.00  0.00  1.00  0.00  0.00  0.00  0.00
  
  
  *************************
  Conduit Surcharge Summary
  *************************
  
  ----------------------------------------------------------------------------
                                                           Hours        Hours 
                         --------- Hours Full --------   Above Full   Capacity
  Conduit                Both Ends  Upstream  Dnstream   Normal Flow   Limited
  ----------------------------------------------------------------------------
  C10                         0.01      0.01      5.14      0.01         0.01
  C13                         0.01      0.01      3.44      0.01         0.01
  C23                         0.01      0.01      4.49      0.01         0.01
  C4                          0.01      0.01      5.44      0.01         0.01
  C7                          0.01      0.01      5.18      0.01         0.01
  

  Analysis begun on:  Fri Sep  3 15:57:45 2021
  Analysis ended on:  Fri Sep  3 15:57:45 2021
  Total elapsed time: < 1 sec