
  EPA STORM WATER MANAGEMENT MODEL - VERSION 5.1 (Build 5.3.0.dev0)
  --------------------------------------------------------------

  
  *********************************************************
  NOTE: The summary statistics displayed in this report are
  based on results found at every computational time step,  
  not just on results from each reporting time step.
  *********************************************************
  
  ****************
  Analysis Options
  ****************
  Flow Units ............... CMS
  Process Models:
    Rainfall/Runoff ........ YES
    RDII ................... NO
    Snowmelt ............... NO
    Groundwater ............ NO
    Flow Routing ........... YES
    Ponding Allowed ........ YES
    Water Quality .......... NO
  Infiltration Method ...... HORTON
  Flow Routing Method ...... DYNWAVE
  Surcharge Method ......... EXTRAN
  Starting Date ............ 08/28/2015 08:00:00
  Ending Date .............. 08/28/2015 15:50:00
  Antecedent Dry Days ...... 0.0
  Report Time Step ......... 00:01:00
  Wet Time Step ............ 00:01:00
  Dry Time Step ............ 00:01:00
  Routing Time Step ........ 5.00 sec
  Variable Time Step ....... YES
  Maximum Trials ........... 8
  Number of Threads ........ 1
  Head Tolerance ........... 0.001500 m
  
  
  **************************        Volume         Depth
  Runoff Quantity Continuity     hectare-m            mm
  **************************     ---------       -------
  Total Precipitation ......         0.713         3.956
  Evaporation Loss .........         0.000         0.000
  Infiltration Loss ........         0.000         0.000
  Surface Runoff ...........         0.690         3.831
  Final Storage ............         0.023         0.125
  Continuity Error (%) .....        -0.008
  
  
  **************************        Volume        Volume
  Flow Routing Continuity        hectare-m      10^6 ltr
  **************************     ---------     ---------
  Dry Weather Inflow .......         0.396         3.955
  Wet Weather Inflow .......         0.690         6.903
  Groundwater Inflow .......         0.000         0.000
  RDII Inflow ..............         0.000         0.000
  External Inflow ..........         0.000         0.000
  External Outflow .........         0.429         4.288
  Flooding Loss ............         0.000         0.000
  Evaporation Loss .........         0.000         0.000
  Exfiltration Loss ........         0.000         0.000
  Initial Stored Volume ....         0.000         0.000
  Final Stored Volume ......         0.544         5.436
  Continuity Error (%) .....        10.441
  
  
  *************************
  Highest Continuity Errors
  *************************
  Node T2 (33.16%)
  Node T3 (26.01%)
  Node T6 (25.23%)
  Node T4 (22.60%)
  Node T5 (22.29%)
  
  
  ***************************
  Time-Step Critical Elements
  ***************************
  None
  
  
  ********************************
  Highest Flow Instability Indexes
  ********************************
  All links are stable.
  
  
  *************************
  Routing Time Step Summary
  *************************
  Minimum Time Step           :     4.50 sec
  Average Time Step           :     5.00 sec
  Maximum Time Step           :     5.00 sec
  Percent in Steady State     :     0.00
  Average Iterations per Step :     2.00
  Percent Not Converging      :     0.00
  
  
  ***************************
  Subcatchment Runoff Summary
  ***************************
  
  ------------------------------------------------------------------------------------------------------------------------------
                            Total      Total      Total      Total     Imperv       Perv      Total       Total     Peak  Runoff
                           Precip      Runon       Evap      Infil     Runoff     Runoff     Runoff      Runoff   Runoff   Coeff
  Subcatchment                 mm         mm         mm         mm         mm         mm         mm    10^6 ltr      CMS
  ------------------------------------------------------------------------------------------------------------------------------
  SC01                       3.96       0.00       0.00       0.00       3.87       0.00       3.87        1.28     0.25   0.979
  SC02                       3.96       0.00       0.00       0.00       3.87       0.00       3.87        0.88     0.17   0.977
  SC03                       3.96       0.00       0.00       0.00       3.89       0.00       3.89        0.70     0.14   0.983
  SC04                       3.96       0.00       0.00       0.00       3.77       0.00       3.77        0.26     0.05   0.954
  SC05                       3.96       0.00       0.00       0.00       3.87       0.00       3.87        0.60     0.12   0.977
  SC06                       3.96       0.00       0.00       0.00       3.73       0.00       3.73        1.21     0.21   0.942
  SC07                       3.96       0.00       0.00       0.00       3.77       0.00       3.77        0.18     0.03   0.954
  SC08                       3.96       0.00       0.00       0.00       3.84       0.00       3.84        1.08     0.20   0.971
  SC09                       3.96       0.00       0.00       0.00       3.82       0.00       3.82        0.26     0.05   0.965
  SC010                      3.96       0.00       0.00       0.00       3.85       0.00       3.85        0.45     0.09   0.972
  
  
  ******************
  Node Depth Summary
  ******************
  
  ---------------------------------------------------------------------------------
                                 Average  Maximum  Maximum  Time of Max    Reported
                                   Depth    Depth      HGL   Occurrence   Max Depth
  Node                 Type       Meters   Meters   Meters  days hr:min      Meters
  ---------------------------------------------------------------------------------
  J1                   JUNCTION     0.07     0.13    34.13     0  03:01        0.13
  J3                   JUNCTION     0.08     0.10    18.10     0  07:03        0.10
  CSO7                 JUNCTION     0.09     0.16    34.16     0  03:01        0.16
  J5                   JUNCTION     0.06     0.10    32.10     0  03:01        0.10
  CSO9                 JUNCTION     0.10     0.21    40.21     0  03:01        0.21
  J8                   JUNCTION     0.10     0.18    36.18     0  03:01        0.18
  CSO8                 JUNCTION     0.11     0.29    32.29     0  03:01        0.29
  J10                  JUNCTION     0.08     0.19    29.19     0  03:01        0.18
  J13                  JUNCTION     0.06     0.12    29.12     0  03:01        0.12
  J15                  JUNCTION     0.14     0.23    15.23     0  03:02        0.23
  J16                  JUNCTION     0.06     0.13    30.13     0  03:01        0.13
  CSO10                JUNCTION     0.10     0.25    30.25     0  03:01        0.25
  J12                  JUNCTION     0.12     0.21    26.21     0  03:03        0.21
  J4                   JUNCTION     0.11     0.19    33.19     0  03:03        0.19
  J6                   JUNCTION     0.05     0.06    25.06     0  05:34        0.06
  J2                   JUNCTION     0.06     0.07    25.07     0  04:36        0.07
  J19                  JUNCTION     0.12     0.16     8.16     0  03:32        0.16
  J9                   JUNCTION     0.09     0.11    29.11     0  05:03        0.11
  J14                  JUNCTION     0.08     0.11    20.11     0  02:50        0.11
  J17                  JUNCTION     0.05     0.06    20.06     0  05:18        0.06
  J7                   JUNCTION     0.07     0.15    39.15     0  03:02        0.15
  J11                  JUNCTION     0.09     0.20    31.20     0  03:01        0.20
  J18                  JUNCTION     0.05     0.11    29.11     0  03:02        0.11
  Out_to_WWTP          OUTFALL      0.12     0.16     6.16     0  03:32        0.16
  T5                   STORAGE      2.02     3.01    30.01     0  04:34        3.01
  T4                   STORAGE      1.83     2.80    29.80     0  05:32        2.80
  T6                   STORAGE      2.92     4.57    35.57     0  05:01        4.57
  T3                   STORAGE      1.97     3.54    25.54     0  07:50        3.54
  T2                   STORAGE      1.58     2.33    23.33     0  05:15        2.33
  T1                   STORAGE      1.96     3.67    13.67     0  03:31        3.67
  
  
  *******************
  Node Inflow Summary
  *******************
  
  -------------------------------------------------------------------------------------------------
                                  Maximum  Maximum                  Lateral       Total        Flow
                                  Lateral    Total  Time of Max      Inflow      Inflow     Balance
                                   Inflow   Inflow   Occurrence      Volume      Volume       Error
  Node                 Type           CMS      CMS  days hr:min    10^6 ltr    10^6 ltr     Percent
  -------------------------------------------------------------------------------------------------
  J1                   JUNCTION     0.140    0.140     0  03:01        1.16        1.16       0.056
  J3                   JUNCTION     0.000    0.099     0  07:01           0        2.08       1.184
  CSO7                 JUNCTION     0.044    0.044     0  03:01        0.47        0.47       0.096
  J5                   JUNCTION     0.051    0.092     0  03:01       0.388       0.853       0.202
  CSO9                 JUNCTION     0.057    0.057     0  03:01        0.46        0.46       0.095
  J8                   JUNCTION     0.246    0.300     0  03:01        2.15        2.61       0.207
  CSO8                 JUNCTION     0.214    0.214     0  03:01        1.37        1.37       0.039
  J10                  JUNCTION     0.157    0.365     0  03:01        1.09        2.45       0.225
  J13                  JUNCTION     0.190    0.190     0  03:01        1.35        1.35      -0.211
  J15                  JUNCTION     0.000    0.460     0  03:01           0        4.93       1.197
  J16                  JUNCTION     0.273    0.273     0  03:01        1.83        1.83       0.038
  CSO10                JUNCTION     0.092    0.092     0  03:01       0.591       0.591       0.072
  J12                  JUNCTION     0.000    0.416     0  03:01           0        3.91       0.649
  J4                   JUNCTION     0.000    0.043     0  03:01           0       0.469       0.802
  J6                   JUNCTION     0.000    0.021     0  05:32           0       0.403       0.826
  J2                   JUNCTION     0.000    0.030     0  04:34           0       0.652       0.656
  J19                  JUNCTION     0.000    0.232     0  03:31           0         4.3       0.202
  J9                   JUNCTION     0.000    0.072     0  05:01           0        1.49       1.099
  J14                  JUNCTION     0.000    0.065     0  02:50           0        1.04       0.374
  J17                  JUNCTION     0.000    0.023     0  05:15           0       0.463       1.057
  J7                   JUNCTION     0.000    0.056     0  03:01           0       0.459       0.701
  J11                  JUNCTION     0.000    0.214     0  03:01           0        1.37       0.428
  J18                  JUNCTION     0.000    0.091     0  03:01           0        0.59       0.194
  Out_to_WWTP          OUTFALL      0.000    0.232     0  03:32           0        4.29       0.000
  T5                   STORAGE      0.000    0.139     0  03:01           0        1.16      28.688
  T4                   STORAGE      0.000    0.092     0  03:01           0       0.852      29.203
  T6                   STORAGE      0.000    0.295     0  03:01           0         2.6      33.752
  T3                   STORAGE      0.000    0.409     0  03:03           0        3.89      35.149
  T2                   STORAGE      0.000    0.188     0  03:01           0        1.35      49.603
  T1                   STORAGE      0.000    0.450     0  03:02           0        4.87       7.159
  
  
  **********************
  Node Surcharge Summary
  **********************
  
  No nodes were surcharged.
  
  
  *********************
  Node Flooding Summary
  *********************
  
  No nodes were flooded.
  
  
  **********************
  Storage Volume Summary
  **********************
  
  --------------------------------------------------------------------------------------------------
                         Average     Avg  Evap Exfil       Maximum     Max    Time of Max    Maximum
                          Volume    Pcnt  Pcnt  Pcnt        Volume    Pcnt     Occurrence    Outflow
  Storage Unit           1000 m3    Full  Loss  Loss       1000 m3    Full    days hr:min        CMS
  --------------------------------------------------------------------------------------------------
  T5                       0.202      40     0     0         0.301      60       0  04:34      0.030
  T4                       0.183      37     0     0         0.280      56       0  05:32      0.021
  T6                       0.351      58     0     0         0.549      91       0  05:01      0.072
  T3                       1.025      39     0     0         1.842      71       0  07:50      0.065
  T2                       0.316      32     0     0         0.466      47       0  05:15      0.023
  T1                       0.275      39     0     0         0.514      73       0  03:31      0.232
  
  
  ***********************
  Outfall Loading Summary
  ***********************
  
  -----------------------------------------------------------
                         Flow       Avg       Max       Total
                         Freq      Flow      Flow      Volume
  Outfall Node           Pcnt       CMS       CMS    10^6 ltr
  -----------------------------------------------------------
  Out_to_WWTP           99.01     0.154     0.232       4.288
  -----------------------------------------------------------
  System                99.01     0.154     0.232       4.288
  
  
  ********************
  Link Flow Summary
  ********************
  
  -----------------------------------------------------------------------------
                                 Maximum  Time of Max   Maximum    Max/    Max/
                                  |Flow|   Occurrence   |Veloc|    Full    Full
  Link                 Type          CMS  days hr:min     m/sec    Flow   Depth
  -----------------------------------------------------------------------------
  C1                   CONDUIT     0.030     0  04:36      0.98    0.01    0.08
  C6                   CONDUIT     0.042     0  03:03      1.20    0.67    0.50
  C2                   CONDUIT     0.021     0  05:34      0.91    0.02    0.14
  C9                   CONDUIT     0.055     0  03:02      0.99    0.19    0.33
  C16                  CONDUIT     0.210     0  03:02      1.37    0.02    0.10
  C3                   CONDUIT     0.065     0  02:50      1.48    0.02    0.10
  C19                  CONDUIT     0.023     0  05:18      0.57    0.01    0.14
  C11                  CONDUIT     0.099     0  07:03      1.36    0.00    0.08
  C20                  CONDUIT     0.271     0  03:01      1.95    0.01    0.09
  C22                  CONDUIT     0.090     0  03:02      1.16    0.04    0.21
  C12                  CONDUIT     0.072     0  05:03      1.07    0.01    0.08
  C17                  CONDUIT     0.359     0  03:01      2.22    0.02    0.10
  C10                  CONDUIT     0.295     0  03:01      1.66    0.03    0.56
  C13                  CONDUIT     0.409     0  03:03      1.45    0.02    0.55
  C18                  CONDUIT     0.188     0  03:01      1.72    0.01    0.52
  C23                  CONDUIT     0.450     0  03:02      1.24    0.05    0.58
  C4                   CONDUIT     0.139     0  03:01      1.98    0.03    0.56
  C7                   CONDUIT     0.092     0  03:01      1.43    0.02    0.55
  C14                  CONDUIT     0.232     0  03:32      1.99    0.01    0.08
  C5                   CONDUIT     0.043     0  03:01      1.22    0.74    0.70
  C8                   CONDUIT     0.056     0  03:01      1.25    0.71    0.56
  C15                  CONDUIT     0.214     0  03:01      2.45    0.68    0.53
  C21                  CONDUIT     0.091     0  03:01      1.58    0.52    0.41
  V4                   ORIFICE     0.021     0  05:32                      0.35
  V5                   ORIFICE     0.030     0  04:34                      1.00
  V1                   ORIFICE     0.232     0  03:31                      1.00
  V6                   ORIFICE     0.072     0  05:01                      0.43
  V3                   ORIFICE     0.065     0  02:50                      0.65
  V2                   ORIFICE     0.023     0  05:15                      0.24
  
  
  ***************************
  Flow Classification Summary
  ***************************
  
  -------------------------------------------------------------------------------------
                      Adjusted    ---------- Fraction of Time in Flow Class ---------- 
                       /Actual         Up    Down  Sub   Sup   Up    Down  Norm  Inlet 
  Conduit               Length    Dry  Dry   Dry   Crit  Crit  Crit  Crit  Ltd   Ctrl  
  -------------------------------------------------------------------------------------
  C1                      1.00   0.00  0.00  0.00  0.00  1.00  0.00  0.00  0.93  0.00
  C6                      1.00   0.00  0.00  0.00  0.01  0.99  0.00  0.00  0.00  0.00
  C2                      1.00   0.00  0.00  0.00  0.32  0.68  0.00  0.00  0.97  0.00
  C9                      1.00   0.00  0.00  0.00  1.00  0.00  0.00  0.00  1.00  0.00
  C16                     1.00   0.00  0.00  0.00  0.61  0.39  0.00  0.00  0.50  0.00
  C3                      1.00   0.00  0.00  0.00  0.04  0.95  0.00  0.00  0.83  0.00
  C19                     1.00   0.00  0.00  0.00  1.00  0.00  0.00  0.00  1.00  0.00
  C11                     1.00   0.00  0.00  0.00  0.35  0.64  0.00  0.00  1.00  0.00
  C20                     1.00   0.00  0.00  0.00  0.53  0.47  0.00  0.00  0.98  0.00
  C22                     1.00   0.00  0.00  0.00  0.79  0.21  0.00  0.00  1.00  0.00
  C12                     1.00   0.00  0.00  0.00  0.48  0.52  0.00  0.00  1.00  0.00
  C17                     1.00   0.00  0.00  0.00  0.39  0.61  0.00  0.00  0.97  0.00
  C10                     1.00   0.00  0.00  0.00  0.96  0.04  0.00  0.00  0.97  0.00
  C13                     1.00   0.00  0.00  0.00  0.87  0.13  0.00  0.00  0.90  0.00
  C18                     1.00   0.00  0.00  0.00  0.94  0.06  0.00  0.00  0.97  0.00
  C23                     1.00   0.00  0.00  0.00  0.88  0.12  0.00  0.00  0.94  0.00
  C4                      1.00   0.00  0.00  0.00  0.96  0.04  0.00  0.00  0.98  0.00
  C7                      1.00   0.00  0.00  0.00  0.95  0.05  0.00  0.00  0.97  0.00
  C14                     1.00   0.00  0.00  0.00  0.00  0.99  0.00  0.00  0.45  0.00
  C5                      1.00   0.00  0.00  0.00  0.88  0.12  0.00  0.00  0.98  0.00
  C8                      1.00   0.00  0.00  0.00  0.00  1.00  0.00  0.00  0.00  0.00
  C15                     1.00   0.00  0.00  0.00  0.00  1.00  0.00  0.00  0.00  0.00
  C21                     1.00   0.00  0.00  0.00  0.00  1.00  0.00  0.00  0.00  0.00
  
  
  *************************
  Conduit Surcharge Summary
  *************************
  
  ----------------------------------------------------------------------------
                                                           Hours        Hours 
                         --------- Hours Full --------   Above Full   Capacity
  Conduit                Both Ends  Upstream  Dnstream   Normal Flow   Limited
  ----------------------------------------------------------------------------
  C10                         0.01      0.01      5.41      0.01         0.01
  C13                         0.01      0.01      4.58      0.01         0.01
  C18                         0.01      0.01      4.60      0.01         0.01
  C23                         0.01      0.01      5.41      0.01         0.01
  C4                          0.01      0.01      5.67      0.01         0.01
  C7                          0.01      0.01      5.42      0.01         0.01
  

  Analysis begun on:  Fri Sep  3 16:00:01 2021
  Analysis ended on:  Fri Sep  3 16:00:01 2021
  Total elapsed time: < 1 sec