
  EPA STORM WATER MANAGEMENT MODEL - VERSION 5.1 (Build 5.3.0.dev0)
  --------------------------------------------------------------

  WARNING 09: time series interval greater than recording interval for Rain Gage RG1
  WARNING 09: time series interval greater than recording interval for Rain Gage RG2
  WARNING 09: time series interval greater than recording interval for Rain Gage RG3
  WARNING 09: time series interval greater than recording interval for Rain Gage RG4
  
  *********************************************************
  NOTE: The summary statistics displayed in this report are
  based on results found at every computational time step,  
  not just on results from each reporting time step.
  *********************************************************
  
  ****************
  Analysis Options
  ****************
  Flow Units ............... CMS
  Process Models:
    Rainfall/Runoff ........ YES
    RDII ................... NO
    Snowmelt ............... NO
    Groundwater ............ NO
    Flow Routing ........... YES
    Ponding Allowed ........ YES
    Water Quality .......... NO
  Infiltration Method ...... HORTON
  Flow Routing Method ...... DYNWAVE
  Surcharge Method ......... EXTRAN
  Starting Date ............ 08/28/2015 00:00:00
  Ending Date .............. 08/28/2015 23:40:00
  Antecedent Dry Days ...... 0.0
  Report Time Step ......... 00:01:00
  Wet Time Step ............ 00:01:00
  Dry Time Step ............ 00:01:00
  Routing Time Step ........ 5.00 sec
  Variable Time Step ....... YES
  Maximum Trials ........... 8
  Number of Threads ........ 1
  Head Tolerance ........... 0.001500 m
  
  
  **************************        Volume         Depth
  Runoff Quantity Continuity     hectare-m            mm
  **************************     ---------       -------
  Total Precipitation ......         2.151        11.935
  Evaporation Loss .........         0.000         0.000
  Infiltration Loss ........         0.000         0.000
  Surface Runoff ...........         2.139        11.869
  Final Storage ............         0.013         0.071
  Continuity Error (%) .....        -0.046
  
  
  **************************        Volume        Volume
  Flow Routing Continuity        hectare-m      10^6 ltr
  **************************     ---------     ---------
  Dry Weather Inflow .......         0.758         7.576
  Wet Weather Inflow .......         2.139        21.389
  Groundwater Inflow .......         0.000         0.000
  RDII Inflow ..............         0.000         0.000
  External Inflow ..........         0.000         0.000
  External Outflow .........         1.771        17.712
  Flooding Loss ............         0.375         3.747
  Evaporation Loss .........         0.000         0.000
  Exfiltration Loss ........         0.000         0.000
  Initial Stored Volume ....         0.000         0.000
  Final Stored Volume ......         0.615         6.150
  Continuity Error (%) .....         4.678
  
  
  *************************
  Highest Continuity Errors
  *************************
  Node T2 (20.20%)
  Node T3 (12.27%)
  Node T4 (9.35%)
  Node T5 (5.92%)
  Node T6 (5.87%)
  
  
  ***************************
  Time-Step Critical Elements
  ***************************
  None
  
  
  ********************************
  Highest Flow Instability Indexes
  ********************************
  Link C15 (1)
  Link C20 (1)
  
  
  *************************
  Routing Time Step Summary
  *************************
  Minimum Time Step           :     4.50 sec
  Average Time Step           :     5.00 sec
  Maximum Time Step           :     5.00 sec
  Percent in Steady State     :     0.00
  Average Iterations per Step :     2.00
  Percent Not Converging      :     0.00
  
  
  ***************************
  Subcatchment Runoff Summary
  ***************************
  
  ------------------------------------------------------------------------------------------------------------------------------
                            Total      Total      Total      Total     Imperv       Perv      Total       Total     Peak  Runoff
                           Precip      Runon       Evap      Infil     Runoff     Runoff     Runoff      Runoff   Runoff   Coeff
  Subcatchment                 mm         mm         mm         mm         mm         mm         mm    10^6 ltr      CMS
  ------------------------------------------------------------------------------------------------------------------------------
  SC01                      12.33       0.00       0.00       0.00      12.28       0.00      12.28        4.05     0.23   0.996
  SC02                      12.81       0.00       0.00       0.00      12.76       0.00      12.76        2.90     0.22   0.996
  SC03                      10.99       0.00       0.00       0.00      10.95       0.00      10.95        1.97     0.17   0.996
  SC04                      12.81       0.00       0.00       0.00      12.72       0.00      12.72        0.88     0.05   0.993
  SC05                      12.33       0.00       0.00       0.00      12.27       0.00      12.27        1.91     0.10   0.995
  SC06                      11.67       0.00       0.00       0.00      11.57       0.00      11.57        3.77     0.18   0.992
  SC07                      12.81       0.00       0.00       0.00      12.72       0.00      12.72        0.60     0.03   0.993
  SC08                      10.99       0.00       0.00       0.00      10.93       0.00      10.93        3.06     0.23   0.994
  SC09                      11.67       0.00       0.00       0.00      11.60       0.00      11.60        0.80     0.05   0.994
  SC010                     12.33       0.00       0.00       0.00      12.26       0.00      12.26        1.44     0.07   0.995
  
  
  ******************
  Node Depth Summary
  ******************
  
  ---------------------------------------------------------------------------------
                                 Average  Maximum  Maximum  Time of Max    Reported
                                   Depth    Depth      HGL   Occurrence   Max Depth
  Node                 Type       Meters   Meters   Meters  days hr:min      Meters
  ---------------------------------------------------------------------------------
  J1                   JUNCTION     0.06     0.11    34.11     0  01:52        0.11
  J3                   JUNCTION     0.11     0.14    18.14     0  11:45        0.14
  CSO7                 JUNCTION     0.08     0.14    34.14     0  04:26        0.14
  J5                   JUNCTION     0.05     0.10    32.10     0  04:32        0.10
  CSO9                 JUNCTION     0.09     0.18    40.18     0  01:51        0.18
  J8                   JUNCTION     0.09     0.16    36.16     0  04:57        0.16
  CSO8                 JUNCTION     0.09     0.30    32.30     0  04:56        0.29
  J10                  JUNCTION     0.07     0.18    29.18     0  04:58        0.18
  J13                  JUNCTION     0.05     0.12    29.12     0  01:47        0.12
  J15                  JUNCTION     0.16     0.21    15.21     0  04:43        0.21
  J16                  JUNCTION     0.06     0.12    30.12     0  01:52        0.12
  CSO10                JUNCTION     0.10     0.21    30.21     0  04:36        0.21
  J12                  JUNCTION     0.58     1.01    27.01     0  10:38        1.01
  J4                   JUNCTION     0.10     0.17    33.17     0  04:33        0.17
  J6                   JUNCTION     0.06     0.07    25.07     0  11:00        0.07
  J2                   JUNCTION     0.07     0.08    25.08     0  11:24        0.08
  J19                  JUNCTION     0.15     0.17     8.17     0  11:07        0.17
  J9                   JUNCTION     0.08     0.11    29.11     0  06:30        0.11
  J14                  JUNCTION     0.11     0.15    20.15     0  11:21        0.15
  J17                  JUNCTION     0.06     0.08    20.08     0  09:10        0.08
  J7                   JUNCTION     0.07     0.13    39.13     0  01:54        0.13
  J11                  JUNCTION     0.07     0.20    31.20     0  04:58        0.20
  J18                  JUNCTION     0.05     0.09    29.09     0  04:43        0.09
  Out_to_WWTP          OUTFALL      0.15     0.17     6.17     0  12:03        0.17
  T5                   STORAGE      3.21     5.00    32.00     0  10:43        5.00
  T4                   STORAGE      3.59     5.00    32.00     0  08:44        5.00
  T6                   STORAGE      3.81     5.00    36.00     0  04:36        5.00
  T3                   STORAGE      3.77     5.00    27.00     0  10:30        5.00
  T2                   STORAGE      3.87     5.00    26.00     0  08:18        5.00
  T1                   STORAGE      3.30     5.00    15.00     0  08:23        5.00
  
  
  *******************
  Node Inflow Summary
  *******************
  
  -------------------------------------------------------------------------------------------------
                                  Maximum  Maximum                  Lateral       Total        Flow
                                  Lateral    Total  Time of Max      Inflow      Inflow     Balance
                                   Inflow   Inflow   Occurrence      Volume      Volume       Error
  Node                 Type           CMS      CMS  days hr:min    10^6 ltr    10^6 ltr     Percent
  -------------------------------------------------------------------------------------------------
  J1                   JUNCTION     0.107    0.107     0  01:51        3.01        3.01      -0.074
  J3                   JUNCTION     0.000    0.191     0  11:37           0        10.4       0.329
  CSO7                 JUNCTION     0.036    0.036     0  04:26        1.17        1.17       0.009
  J5                   JUNCTION     0.049    0.081     0  04:31        1.13        2.29      -0.052
  CSO9                 JUNCTION     0.047    0.047     0  01:51        1.18        1.18       0.006
  J8                   JUNCTION     0.191    0.229     0  04:56         5.6        6.78      -0.066
  CSO8                 JUNCTION     0.225    0.225     0  04:56        3.51        3.51      -0.006
  J10                  JUNCTION     0.177    0.362     0  04:56        2.72        6.23      -0.092
  J13                  JUNCTION     0.217    0.217     0  01:46        3.81        3.81      -0.195
  J15                  JUNCTION     0.000    0.406     0  04:42           0        18.8       0.367
  J16                  JUNCTION     0.234    0.234     0  01:51        5.13        5.13      -0.044
  CSO10                JUNCTION     0.071    0.071     0  04:36        1.71        1.71       0.002
  J12                  JUNCTION     0.000    0.377     0  04:58           0        10.2       2.194
  J4                   JUNCTION     0.000    0.035     0  04:26           0        1.17       0.098
  J6                   JUNCTION     0.000    0.028     0  10:00           0        1.55       0.214
  J2                   JUNCTION     0.000    0.039     0  10:43           0        2.54       0.147
  J19                  JUNCTION     0.000    0.271     0  08:23           0        17.7       0.049
  J9                   JUNCTION     0.000    0.075     0  04:37           0        3.97       0.112
  J14                  JUNCTION     0.000    0.124     0  11:20           0        6.28       0.109
  J17                  JUNCTION     0.000    0.033     0  08:50           0         1.6       0.217
  J7                   JUNCTION     0.000    0.046     0  01:52           0        1.18       0.077
  J11                  JUNCTION     0.000    0.223     0  04:56           0        3.51       0.019
  J18                  JUNCTION     0.000    0.068     0  04:37           0        1.71      -0.032
  Out_to_WWTP          OUTFALL      0.000    0.271     0  11:07           0        17.7       0.000
  T5                   STORAGE      0.000    0.099     0  01:52           0        3.01       6.298
  T4                   STORAGE      0.000    0.079     0  04:32           0         2.3      10.312
  T6                   STORAGE      0.000    0.221     0  04:57           0        6.78       6.239
  T3                   STORAGE      0.000    0.367     0  05:00           0        9.98      13.985
  T2                   STORAGE      0.000    0.202     0  01:47           0        3.82      25.309
  T1                   STORAGE      0.000    0.392     0  04:43           0        18.7       1.824
  
  
  **********************
  Node Surcharge Summary
  **********************
  
  No nodes were surcharged.
  
  
  *********************
  Node Flooding Summary
  *********************
  
  Flooding refers to all water that overflows a node, whether it ponds or not.
  --------------------------------------------------------------------------
                                                             Total   Maximum
                                 Maximum   Time of Max       Flood    Ponded
                        Hours       Rate    Occurrence      Volume     Depth
  Node                 Flooded       CMS   days hr:min    10^6 ltr    Meters
  --------------------------------------------------------------------------
  T5                      1.87     0.043      0  13:02       0.124     0.000
  T4                      4.88     0.028      0  08:50       0.243     0.000
  T6                      7.80     0.191      0  04:57       2.152     0.000
  T3                      1.48     0.136      0  10:41       0.206     0.000
  T2                      5.60     0.062      0  08:37       0.648     0.000
  T1                      2.95     0.087      0  08:43       0.374     0.000
  
  
  **********************
  Storage Volume Summary
  **********************
  
  --------------------------------------------------------------------------------------------------
                         Average     Avg  Evap Exfil       Maximum     Max    Time of Max    Maximum
                          Volume    Pcnt  Pcnt  Pcnt        Volume    Pcnt     Occurrence    Outflow
  Storage Unit           1000 m3    Full  Loss  Loss       1000 m3    Full    days hr:min        CMS
  --------------------------------------------------------------------------------------------------
  T5                       0.321      64     0     0         0.500     100       0  10:43      0.039
  T4                       0.359      72     0     0         0.500     100       0  08:44      0.028
  T6                       0.458      76     0     0         0.600     100       0  04:36      0.075
  T3                       1.962      75     0     0         2.600     100       0  10:30      0.124
  T2                       0.773      77     0     0         1.000     100       0  08:18      0.033
  T1                       0.462      66     0     0         0.700     100       0  08:23      0.271
  
  
  ***********************
  Outfall Loading Summary
  ***********************
  
  -----------------------------------------------------------
                         Flow       Avg       Max       Total
                         Freq      Flow      Flow      Volume
  Outfall Node           Pcnt       CMS       CMS    10^6 ltr
  -----------------------------------------------------------
  Out_to_WWTP           99.43     0.209     0.271      17.712
  -----------------------------------------------------------
  System                99.43     0.209     0.271      17.712
  
  
  ********************
  Link Flow Summary
  ********************
  
  -----------------------------------------------------------------------------
                                 Maximum  Time of Max   Maximum    Max/    Max/
                                  |Flow|   Occurrence   |Veloc|    Full    Full
  Link                 Type          CMS  days hr:min     m/sec    Flow   Depth
  -----------------------------------------------------------------------------
  C1                   CONDUIT     0.039     0  11:24      1.07    0.01    0.11
  C6                   CONDUIT     0.034     0  04:33      1.13    0.54    0.44
  C2                   CONDUIT     0.028     0  11:00      1.00    0.03    0.18
  C9                   CONDUIT     0.042     0  01:54      0.97    0.14    0.28
  C16                  CONDUIT     0.203     0  04:58      1.35    0.02    0.09
  C3                   CONDUIT     0.124     0  13:52      1.84    0.05    0.14
  C19                  CONDUIT     0.033     0  09:10      0.70    0.01    0.14
  C11                  CONDUIT     0.191     0  11:45      1.78    0.01    0.08
  C20                  CONDUIT     0.216     0  01:52      2.18    0.01    0.08
  C22                  CONDUIT     0.065     0  04:43      1.12    0.03    0.19
  C12                  CONDUIT     0.075     0  06:30      1.04    0.01    0.28
  C17                  CONDUIT     0.346     0  04:58      2.24    0.02    0.27
  C10                  CONDUIT     0.221     0  04:57      1.13    0.02    0.55
  C13                  CONDUIT     0.367     0  05:00      1.97    0.02    0.75
  C18                  CONDUIT     0.202     0  01:47      1.70    0.01    0.53
  C23                  CONDUIT     0.392     0  04:43      1.44    0.04    0.57
  C4                   CONDUIT     0.099     0  01:52      1.37    0.02    0.55
  C7                   CONDUIT     0.079     0  04:32      1.07    0.02    0.55
  C14                  CONDUIT     0.271     0  11:07      2.08    0.02    0.09
  C5                   CONDUIT     0.035     0  04:26      1.09    0.60    0.61
  C8                   CONDUIT     0.046     0  01:52      1.23    0.57    0.48
  C15                  CONDUIT     0.223     0  04:56      2.54    0.71    0.54
  C21                  CONDUIT     0.068     0  04:37      1.48    0.39    0.34
  V4                   ORIFICE     0.028     0  10:00                      0.35
  V5                   ORIFICE     0.039     0  10:43                      1.00
  V1                   ORIFICE     0.271     0  08:23                      1.00
  V6                   ORIFICE     0.075     0  04:37                      0.43
  V3                   ORIFICE     0.124     0  11:20                      0.65
  V2                   ORIFICE     0.033     0  08:50                      0.24
  
  
  ***************************
  Flow Classification Summary
  ***************************
  
  -------------------------------------------------------------------------------------
                      Adjusted    ---------- Fraction of Time in Flow Class ---------- 
                       /Actual         Up    Down  Sub   Sup   Up    Down  Norm  Inlet 
  Conduit               Length    Dry  Dry   Dry   Crit  Crit  Crit  Crit  Ltd   Ctrl  
  -------------------------------------------------------------------------------------
  C1                      1.00   0.00  0.00  0.00  0.17  0.83  0.00  0.00  0.96  0.00
  C6                      1.00   0.00  0.00  0.00  0.01  0.99  0.00  0.00  0.00  0.00
  C2                      1.00   0.00  0.00  0.00  0.53  0.47  0.00  0.00  0.98  0.00
  C9                      1.00   0.00  0.00  0.00  1.00  0.00  0.00  0.00  1.00  0.00
  C16                     1.00   0.00  0.05  0.00  0.53  0.42  0.00  0.00  0.40  0.00
  C3                      1.00   0.00  0.00  0.00  0.03  0.96  0.00  0.00  0.46  0.00
  C19                     1.00   0.00  0.00  0.00  1.00  0.00  0.00  0.00  1.00  0.00
  C11                     1.00   0.00  0.00  0.00  0.17  0.83  0.00  0.00  1.00  0.00
  C20                     1.00   0.00  0.00  0.00  0.54  0.46  0.00  0.00  0.99  0.00
  C22                     1.00   0.00  0.00  0.00  0.95  0.05  0.00  0.00  1.00  0.00
  C12                     1.00   0.00  0.00  0.00  0.98  0.02  0.00  0.00  1.00  0.00
  C17                     1.00   0.00  0.00  0.00  0.72  0.28  0.00  0.00  0.98  0.00
  C10                     1.00   0.00  0.00  0.00  0.93  0.07  0.00  0.00  0.97  0.00
  C13                     1.00   0.00  0.00  0.00  0.92  0.08  0.00  0.00  0.23  0.00
  C18                     1.00   0.00  0.00  0.00  0.93  0.07  0.00  0.00  0.98  0.00
  C23                     1.00   0.00  0.00  0.00  0.93  0.07  0.00  0.00  0.95  0.00
  C4                      1.00   0.00  0.00  0.00  0.93  0.07  0.00  0.00  0.97  0.00
  C7                      1.00   0.00  0.00  0.00  0.93  0.07  0.00  0.00  0.97  0.00
  C14                     1.00   0.00  0.00  0.00  0.00  1.00  0.00  0.00  0.43  0.00
  C5                      1.00   0.00  0.00  0.00  0.93  0.07  0.00  0.00  0.98  0.00
  C8                      1.00   0.00  0.00  0.00  0.11  0.89  0.00  0.00  0.01  0.00
  C15                     1.00   0.05  0.00  0.00  0.02  0.94  0.00  0.00  0.02  0.00
  C21                     1.00   0.00  0.00  0.00  0.00  1.00  0.00  0.00  0.00  0.00
  
  
  *************************
  Conduit Surcharge Summary
  *************************
  
  ----------------------------------------------------------------------------
                                                           Hours        Hours 
                         --------- Hours Full --------   Above Full   Capacity
  Conduit                Both Ends  Upstream  Dnstream   Normal Flow   Limited
  ----------------------------------------------------------------------------
  C10                         0.01      0.01     21.17      0.01         0.01
  C13                         0.01      0.01     18.91      0.01         0.01
  C18                         0.01      0.01     19.78      0.01         0.01
  C23                         0.01      0.01     21.12      0.01         0.01
  C4                          0.01      0.01     21.21      0.01         0.01
  C7                          0.01      0.01     20.88      0.01         0.01
  

  Analysis begun on:  Mon Sep 20 08:55:06 2021
  Analysis ended on:  Mon Sep 20 08:55:06 2021
  Total elapsed time: < 1 sec