
  EPA STORM WATER MANAGEMENT MODEL - VERSION 5.1 (Build 5.3.0.dev0)
  --------------------------------------------------------------

  WARNING 09: time series interval greater than recording interval for Rain Gage RG1
  WARNING 09: time series interval greater than recording interval for Rain Gage RG2
  WARNING 09: time series interval greater than recording interval for Rain Gage RG3
  WARNING 09: time series interval greater than recording interval for Rain Gage RG4
  
  *********************************************************
  NOTE: The summary statistics displayed in this report are
  based on results found at every computational time step,  
  not just on results from each reporting time step.
  *********************************************************
  
  ****************
  Analysis Options
  ****************
  Flow Units ............... CMS
  Process Models:
    Rainfall/Runoff ........ YES
    RDII ................... NO
    Snowmelt ............... NO
    Groundwater ............ NO
    Flow Routing ........... YES
    Ponding Allowed ........ YES
    Water Quality .......... NO
  Infiltration Method ...... HORTON
  Flow Routing Method ...... DYNWAVE
  Surcharge Method ......... EXTRAN
  Starting Date ............ 08/28/2015 00:00:00
  Ending Date .............. 08/28/2015 23:50:00
  Antecedent Dry Days ...... 0.0
  Report Time Step ......... 00:01:00
  Wet Time Step ............ 00:01:00
  Dry Time Step ............ 00:01:00
  Routing Time Step ........ 5.00 sec
  Variable Time Step ....... YES
  Maximum Trials ........... 8
  Number of Threads ........ 1
  Head Tolerance ........... 0.001500 m
  
  
  **************************        Volume         Depth
  Runoff Quantity Continuity     hectare-m            mm
  **************************     ---------       -------
  Total Precipitation ......         5.771        32.023
  Evaporation Loss .........         0.000         0.000
  Infiltration Loss ........         0.000         0.000
  Surface Runoff ...........         5.740        31.855
  Final Storage ............         0.039         0.217
  Continuity Error (%) .....        -0.154
  
  
  **************************        Volume        Volume
  Flow Routing Continuity        hectare-m      10^6 ltr
  **************************     ---------     ---------
  Dry Weather Inflow .......         0.759         7.586
  Wet Weather Inflow .......         5.740        57.403
  Groundwater Inflow .......         0.000         0.000
  RDII Inflow ..............         0.000         0.000
  External Inflow ..........         0.000         0.000
  External Outflow .........         1.602        16.017
  Flooding Loss ............         3.906        39.061
  Evaporation Loss .........         0.000         0.000
  Exfiltration Loss ........         0.000         0.000
  Initial Stored Volume ....         0.000         0.000
  Final Stored Volume ......         0.776         7.764
  Continuity Error (%) .....         3.303
  
  
  *************************
  Highest Continuity Errors
  *************************
  Node T2 (9.79%)
  Node T5 (6.29%)
  Node T3 (6.17%)
  Node T4 (5.95%)
  Node T6 (5.25%)
  
  
  ***************************
  Time-Step Critical Elements
  ***************************
  None
  
  
  ********************************
  Highest Flow Instability Indexes
  ********************************
  Link C15 (2)
  Link C18 (1)
  Link C20 (1)
  
  
  *************************
  Routing Time Step Summary
  *************************
  Minimum Time Step           :     0.19 sec
  Average Time Step           :     5.00 sec
  Maximum Time Step           :     5.00 sec
  Percent in Steady State     :     0.00
  Average Iterations per Step :     2.37
  Percent Not Converging      :     1.10
  
  
  ***************************
  Subcatchment Runoff Summary
  ***************************
  
  ------------------------------------------------------------------------------------------------------------------------------
                            Total      Total      Total      Total     Imperv       Perv      Total       Total     Peak  Runoff
                           Precip      Runon       Evap      Infil     Runoff     Runoff     Runoff      Runoff   Runoff   Coeff
  Subcatchment                 mm         mm         mm         mm         mm         mm         mm    10^6 ltr      CMS
  ------------------------------------------------------------------------------------------------------------------------------
  SC01                      25.49       0.00       0.00       0.00      25.40       0.00      25.40        8.38     2.01   0.996
  SC02                      35.52       0.00       0.00       0.00      35.38       0.00      35.38        8.05     1.71   0.996
  SC03                      44.74       0.00       0.00       0.00      44.80       0.00      44.80        8.06     2.17   1.001
  SC04                      35.52       0.00       0.00       0.00      35.19       0.00      35.19        2.43     0.33   0.991
  SC05                      25.49       0.00       0.00       0.00      25.38       0.00      25.38        3.96     0.89   0.996
  SC06                      24.14       0.00       0.00       0.00      23.74       0.00      23.74        7.73     0.74   0.984
  SC07                      35.52       0.00       0.00       0.00      35.19       0.00      35.19        1.67     0.23   0.991
  SC08                      44.74       0.00       0.00       0.00      44.62       0.00      44.62       12.49     2.36   0.997
  SC09                      24.14       0.00       0.00       0.00      23.90       0.00      23.90        1.65     0.19   0.990
  SC010                     25.49       0.00       0.00       0.00      25.34       0.00      25.34        2.98     0.59   0.994
  
  
  ******************
  Node Depth Summary
  ******************
  
  ---------------------------------------------------------------------------------
                                 Average  Maximum  Maximum  Time of Max    Reported
                                   Depth    Depth      HGL   Occurrence   Max Depth
  Node                 Type       Meters   Meters   Meters  days hr:min      Meters
  ---------------------------------------------------------------------------------
  J1                   JUNCTION     0.07     0.30    34.30     0  10:01        0.30
  J3                   JUNCTION     0.09     0.12    18.12     0  07:51        0.12
  CSO7                 JUNCTION     0.21     1.20    35.20     0  08:40        1.20
  J5                   JUNCTION     0.07     0.21    32.21     0  09:56        0.21
  CSO9                 JUNCTION     0.16     2.00    42.00     0  10:21        2.00
  J8                   JUNCTION     0.10     0.30    36.30     0  10:37        0.30
  CSO8                 JUNCTION     0.32     2.00    34.00     0  06:55        2.00
  J10                  JUNCTION     0.11     0.44    29.44     0  10:07        0.44
  J13                  JUNCTION     0.07     0.33    29.33     0  09:51        0.32
  J15                  JUNCTION     0.16     0.46    15.46     0  10:07        0.46
  J16                  JUNCTION     0.07     0.33    30.33     0  10:01        0.32
  CSO10                JUNCTION     0.14     1.00    31.00     0  09:55        1.00
  J12                  JUNCTION     0.67     1.08    27.08     0  10:04        1.08
  J4                   JUNCTION     0.17     1.50    34.50     0  08:42        0.76
  J6                   JUNCTION     0.06     0.07    25.07     0  09:42        0.07
  J2                   JUNCTION     0.06     0.08    25.08     0  09:13        0.08
  J19                  JUNCTION     0.13     0.17     8.17     0  07:57        0.17
  J9                   JUNCTION     0.08     0.11    29.11     0  09:44        0.11
  J14                  JUNCTION     0.09     0.13    20.13     0  07:50        0.13
  J17                  JUNCTION     0.06     0.08    20.08     0  09:50        0.08
  J7                   JUNCTION     0.08     0.23    39.23     0  10:47        0.23
  J11                  JUNCTION     0.11     0.30    31.30     0  11:24        0.30
  J18                  JUNCTION     0.06     0.16    29.16     0  10:22        0.16
  Out_to_WWTP          OUTFALL      0.13     0.17     6.17     0  14:34        0.17
  T5                   STORAGE      3.17     5.00    32.00     0  08:27        5.00
  T4                   STORAGE      3.27     5.00    32.00     0  08:54        5.00
  T6                   STORAGE      3.30     5.00    36.00     0  07:52        5.00
  T3                   STORAGE      3.45     5.00    27.00     0  09:11        5.00
  T2                   STORAGE      3.43     5.00    26.00     0  08:51        5.00
  T1                   STORAGE      3.03     5.00    15.00     0  07:56        5.00
  
  
  *******************
  Node Inflow Summary
  *******************
  
  -------------------------------------------------------------------------------------------------
                                  Maximum  Maximum                  Lateral       Total        Flow
                                  Lateral    Total  Time of Max      Inflow      Inflow     Balance
                                   Inflow   Inflow   Occurrence      Volume      Volume       Error
  Node                 Type           CMS      CMS  days hr:min    10^6 ltr    10^6 ltr     Percent
  -------------------------------------------------------------------------------------------------
  J1                   JUNCTION     0.914    0.914     0  10:01        5.05        5.05      -0.019
  J3                   JUNCTION     0.000    0.137     0  07:50           0        8.11       0.333
  CSO7                 JUNCTION     0.238    0.238     0  09:51        2.24        2.24       0.012
  J5                   JUNCTION     0.335    0.409     0  09:56        2.68        4.56       0.017
  CSO9                 JUNCTION     0.197    0.197     0  10:31        2.03        2.03      -0.004
  J8                   JUNCTION     0.774    0.896     0  10:31        9.56        11.5       0.034
  CSO8                 JUNCTION     2.368    2.368     0  10:06        12.9        12.9      -0.010
  J10                  JUNCTION     2.182    2.667     0  10:06        8.82        18.8      -0.035
  J13                  JUNCTION     1.724    1.724     0  09:51        8.96        8.96      -0.036
  J15                  JUNCTION     0.000    2.195     0  10:01           0        22.5       0.299
  J16                  JUNCTION     2.026    2.026     0  10:01        9.46        9.46      -0.040
  CSO10                JUNCTION     0.591    0.591     0  10:06        3.25        3.25      -0.028
  J12                  JUNCTION     0.000    2.227     0  10:07           0        23.2       3.647
  J4                   JUNCTION     0.000    0.081     0  08:41           0        1.89       0.075
  J6                   JUNCTION     0.000    0.028     0  08:54           0        1.65       0.232
  J2                   JUNCTION     0.000    0.039     0  08:27           0         2.4       0.199
  J19                  JUNCTION     0.000    0.271     0  07:56           0          16       0.064
  J9                   JUNCTION     0.000    0.075     0  08:00           0        4.37       0.363
  J14                  JUNCTION     0.000    0.092     0  07:50           0        4.08       0.107
  J17                  JUNCTION     0.000    0.033     0  08:51           0        1.96       0.334
  J7                   JUNCTION     0.000    0.127     0  10:47           0        1.99       0.091
  J11                  JUNCTION     0.000    0.487     0  11:24           0          10       0.049
  J18                  JUNCTION     0.000    0.202     0  10:22           0           3       0.011
  Out_to_WWTP          OUTFALL      0.000    0.271     0  07:57           0          16       0.000
  T5                   STORAGE      0.000    0.833     0  10:01           0        5.06       6.714
  T4                   STORAGE      0.000    0.389     0  09:56           0        4.56       6.331
  T6                   STORAGE      0.000    0.851     0  10:37           0        11.5       5.545
  T3                   STORAGE      0.000    2.277     0  10:09           0        22.4       6.576
  T2                   STORAGE      0.000    1.549     0  09:51           0        8.96      10.850
  T1                   STORAGE      0.000    1.880     0  10:08           0        22.4       2.191
  
  
  **********************
  Node Surcharge Summary
  **********************
  
  Surcharging occurs when water rises above the top of the highest conduit.
  ---------------------------------------------------------------------
                                               Max. Height   Min. Depth
                                   Hours       Above Crown    Below Rim
  Node                 Type      Surcharged         Meters       Meters
  ---------------------------------------------------------------------
  CSO7                 JUNCTION        2.77          0.945        0.000
  CSO9                 JUNCTION        1.30          1.682        0.000
  CSO8                 JUNCTION        3.31          1.547        0.000
  CSO10                JUNCTION        0.72          0.560        0.000
  J4                   JUNCTION        2.74          1.199        0.501
  
  
  *********************
  Node Flooding Summary
  *********************
  
  Flooding refers to all water that overflows a node, whether it ponds or not.
  --------------------------------------------------------------------------
                                                             Total   Maximum
                                 Maximum   Time of Max       Flood    Ponded
                        Hours       Rate    Occurrence      Volume     Depth
  Node                 Flooded       CMS   days hr:min    10^6 ltr    Meters
  --------------------------------------------------------------------------
  CSO7                    2.38     0.164      0  09:51       0.351     0.000
  CSO9                    0.39     0.072      0  10:26       0.044     0.000
  CSO8                    1.90     1.872      0  10:06       2.939     0.000
  CSO10                   0.52     0.386      0  10:06       0.244     0.000
  T5                      5.32     0.793      0  10:01       2.024     0.000
  T4                      6.35     0.360      0  09:56       2.270     0.000
  T6                      8.12     0.776      0  10:37       6.144     0.000
  T3                     14.65     2.217      0  10:09      14.299     0.000
  T2                      7.14     1.516      0  09:51       5.203     0.000
  T1                      4.75     1.609      0  10:08       5.542     0.000
  
  
  **********************
  Storage Volume Summary
  **********************
  
  --------------------------------------------------------------------------------------------------
                         Average     Avg  Evap Exfil       Maximum     Max    Time of Max    Maximum
                          Volume    Pcnt  Pcnt  Pcnt        Volume    Pcnt     Occurrence    Outflow
  Storage Unit           1000 m3    Full  Loss  Loss       1000 m3    Full    days hr:min        CMS
  --------------------------------------------------------------------------------------------------
  T5                       0.317      63     0     0         0.500     100       0  08:27      0.039
  T4                       0.327      65     0     0         0.500     100       0  08:54      0.028
  T6                       0.396      66     0     0         0.600     100       0  07:52      0.075
  T3                       1.793      69     0     0         2.600     100       0  09:11      0.185
  T2                       0.686      69     0     0         1.000     100       0  08:51      0.033
  T1                       0.425      61     0     0         0.700     100       0  07:56      0.271
  
  
  ***********************
  Outfall Loading Summary
  ***********************
  
  -----------------------------------------------------------
                         Flow       Avg       Max       Total
                         Freq      Flow      Flow      Volume
  Outfall Node           Pcnt       CMS       CMS    10^6 ltr
  -----------------------------------------------------------
  Out_to_WWTP           99.43     0.188     0.271      16.017
  -----------------------------------------------------------
  System                99.43     0.188     0.271      16.017
  
  
  ********************
  Link Flow Summary
  ********************
  
  -----------------------------------------------------------------------------
                                 Maximum  Time of Max   Maximum    Max/    Max/
                                  |Flow|   Occurrence   |Veloc|    Full    Full
  Link                 Type          CMS  days hr:min     m/sec    Flow   Depth
  -----------------------------------------------------------------------------
  C1                   CONDUIT     0.039     0  09:13      1.05    0.01    0.10
  C6                   CONDUIT     0.074     0  09:56      1.28    1.18    0.85
  C2                   CONDUIT     0.028     0  09:41      1.00    0.03    0.16
  C9                   CONDUIT     0.127     0  10:47      1.26    0.43    0.53
  C16                  CONDUIT     0.494     0  10:51      1.81    0.05    0.18
  C3                   CONDUIT     0.092     0  07:50      1.65    0.04    0.12
  C19                  CONDUIT     0.033     0  09:50      0.72    0.01    0.27
  C11                  CONDUIT     0.136     0  07:51      1.45    0.01    0.14
  C20                  CONDUIT     1.834     0  10:01      4.84    0.06    0.19
  C22                  CONDUIT     0.202     0  10:22      1.54    0.09    0.39
  C12                  CONDUIT     0.075     0  09:44      0.58    0.01    0.30
  C17                  CONDUIT     2.152     0  10:07      2.86    0.11    0.38
  C10                  CONDUIT     0.851     0  10:37      0.94    0.09    0.60
  C13                  CONDUIT     2.277     0  10:09      1.87    0.13    0.77
  C18                  CONDUIT     1.549     0  09:51      1.10    0.06    0.58
  C23                  CONDUIT     1.880     0  10:08      1.53    0.21    0.65
  C4                   CONDUIT     0.833     0  10:01      1.53    0.20    0.65
  C7                   CONDUIT     0.389     0  09:56      0.82    0.10    0.60
  C14                  CONDUIT     0.271     0  07:57      2.08    0.02    0.09
  C5                   CONDUIT     0.081     0  08:41      1.59    1.39    1.00
  C8                   CONDUIT     0.127     0  10:47      1.80    1.60    0.86
  C15                  CONDUIT     0.487     0  11:24      3.54    1.55    0.83
  C21                  CONDUIT     0.202     0  10:22      1.90    1.16    0.69
  V4                   ORIFICE     0.028     0  08:54                      0.35
  V5                   ORIFICE     0.039     0  08:27                      1.00
  V1                   ORIFICE     0.271     0  07:56                      1.00
  V6                   ORIFICE     0.075     0  08:00                      0.43
  V3                   ORIFICE     0.092     0  07:50                      0.65
  V2                   ORIFICE     0.033     0  08:51                      0.24
  
  
  ***************************
  Flow Classification Summary
  ***************************
  
  -------------------------------------------------------------------------------------
                      Adjusted    ---------- Fraction of Time in Flow Class ---------- 
                       /Actual         Up    Down  Sub   Sup   Up    Down  Norm  Inlet 
  Conduit               Length    Dry  Dry   Dry   Crit  Crit  Crit  Crit  Ltd   Ctrl  
  -------------------------------------------------------------------------------------
  C1                      1.00   0.00  0.00  0.00  0.04  0.96  0.00  0.00  0.96  0.00
  C6                      1.00   0.00  0.00  0.00  0.13  0.87  0.00  0.00  0.00  0.00
  C2                      1.00   0.00  0.00  0.00  0.28  0.72  0.00  0.00  0.98  0.00
  C9                      1.00   0.00  0.00  0.00  1.00  0.00  0.00  0.00  1.00  0.00
  C16                     1.00   0.00  0.18  0.00  0.17  0.65  0.00  0.00  0.16  0.00
  C3                      1.00   0.00  0.00  0.00  0.04  0.96  0.00  0.00  0.82  0.00
  C19                     1.00   0.00  0.00  0.00  1.00  0.00  0.00  0.00  1.00  0.00
  C11                     1.00   0.00  0.00  0.00  0.28  0.72  0.00  0.00  1.00  0.00
  C20                     1.00   0.00  0.00  0.00  0.53  0.47  0.00  0.00  0.99  0.00
  C22                     1.00   0.00  0.00  0.00  0.83  0.17  0.00  0.00  1.00  0.00
  C12                     1.00   0.00  0.00  0.00  0.98  0.02  0.00  0.00  0.98  0.00
  C17                     1.00   0.00  0.00  0.00  0.80  0.20  0.00  0.00  0.96  0.00
  C10                     1.00   0.00  0.00  0.00  0.97  0.03  0.00  0.00  0.98  0.00
  C13                     1.00   0.00  0.00  0.00  0.78  0.22  0.00  0.00  0.25  0.00
  C18                     1.00   0.00  0.00  0.00  0.88  0.12  0.00  0.00  0.98  0.00
  C23                     1.00   0.00  0.00  0.00  0.80  0.20  0.00  0.00  0.96  0.00
  C4                      1.00   0.00  0.00  0.00  0.82  0.18  0.00  0.00  0.98  0.00
  C7                      1.00   0.00  0.00  0.00  0.95  0.05  0.00  0.00  0.97  0.00
  C14                     1.00   0.00  0.00  0.00  0.00  1.00  0.00  0.00  0.28  0.00
  C5                      1.00   0.00  0.00  0.00  0.92  0.08  0.00  0.00  0.86  0.00
  C8                      1.00   0.00  0.00  0.00  0.24  0.76  0.00  0.00  0.00  0.00
  C15                     1.00   0.18  0.00  0.00  0.00  0.81  0.00  0.00  0.01  0.00
  C21                     1.00   0.00  0.00  0.00  0.00  1.00  0.00  0.00  0.00  0.00
  
  
  *************************
  Conduit Surcharge Summary
  *************************
  
  ----------------------------------------------------------------------------
                                                           Hours        Hours 
                         --------- Hours Full --------   Above Full   Capacity
  Conduit                Both Ends  Upstream  Dnstream   Normal Flow   Limited
  ----------------------------------------------------------------------------
  C6                          0.01      2.74      0.01      2.58         0.01
  C10                         0.01      0.01     17.05      0.01         0.01
  C13                         0.01      0.01     16.70      0.01         0.01
  C18                         0.01      0.01     17.03      0.01         0.01
  C23                         0.01      0.01     17.43      0.01         0.01
  C4                          0.01      0.01     17.60      0.01         0.01
  C7                          0.01      0.01     17.59      0.01         0.01
  C5                          2.72      2.77      2.84      2.85         2.70
  C8                          0.01      1.30      0.01      1.31         0.01
  C15                         0.01      3.31      0.01      3.54         0.01
  C21                         0.01      0.72      0.01      0.66         0.01
  

  Analysis begun on:  Mon Sep 20 12:48:09 2021
  Analysis ended on:  Mon Sep 20 12:48:10 2021
  Total elapsed time: 00:00:01