
  EPA STORM WATER MANAGEMENT MODEL - VERSION 5.1 (Build 5.3.0.dev0)
  --------------------------------------------------------------

  WARNING 09: time series interval greater than recording interval for Rain Gage RG1
  WARNING 09: time series interval greater than recording interval for Rain Gage RG2
  WARNING 09: time series interval greater than recording interval for Rain Gage RG3
  WARNING 09: time series interval greater than recording interval for Rain Gage RG4
  
  *********************************************************
  NOTE: The summary statistics displayed in this report are
  based on results found at every computational time step,  
  not just on results from each reporting time step.
  *********************************************************
  
  ****************
  Analysis Options
  ****************
  Flow Units ............... CMS
  Process Models:
    Rainfall/Runoff ........ YES
    RDII ................... NO
    Snowmelt ............... NO
    Groundwater ............ NO
    Flow Routing ........... YES
    Ponding Allowed ........ YES
    Water Quality .......... NO
  Infiltration Method ...... HORTON
  Flow Routing Method ...... DYNWAVE
  Surcharge Method ......... EXTRAN
  Starting Date ............ 08/28/2015 00:00:00
  Ending Date .............. 08/28/2015 23:40:00
  Antecedent Dry Days ...... 0.0
  Report Time Step ......... 00:01:00
  Wet Time Step ............ 00:01:00
  Dry Time Step ............ 00:01:00
  Routing Time Step ........ 5.00 sec
  Variable Time Step ....... YES
  Maximum Trials ........... 8
  Number of Threads ........ 1
  Head Tolerance ........... 0.001500 m
  
  
  **************************        Volume         Depth
  Runoff Quantity Continuity     hectare-m            mm
  **************************     ---------       -------
  Total Precipitation ......         3.625        20.114
  Evaporation Loss .........         0.000         0.000
  Infiltration Loss ........         0.000         0.000
  Surface Runoff ...........         3.614        20.058
  Final Storage ............         0.018         0.098
  Continuity Error (%) .....        -0.205
  
  
  **************************        Volume        Volume
  Flow Routing Continuity        hectare-m      10^6 ltr
  **************************     ---------     ---------
  Dry Weather Inflow .......         0.758         7.576
  Wet Weather Inflow .......         3.614        36.145
  Groundwater Inflow .......         0.000         0.000
  RDII Inflow ..............         0.000         0.000
  External Inflow ..........         0.000         0.000
  External Outflow .........         1.457        14.569
  Flooding Loss ............         2.144        21.443
  Evaporation Loss .........         0.000         0.000
  Exfiltration Loss ........         0.000         0.000
  Initial Stored Volume ....         0.000         0.000
  Final Stored Volume ......         0.621         6.206
  Continuity Error (%) .....         3.436
  
  
  *************************
  Highest Continuity Errors
  *************************
  Node T2 (17.17%)
  Node T5 (11.71%)
  Node T3 (9.64%)
  Node T4 (8.39%)
  Node T1 (2.14%)
  
  
  ***************************
  Time-Step Critical Elements
  ***************************
  None
  
  
  ********************************
  Highest Flow Instability Indexes
  ********************************
  Link C15 (1)
  
  
  *************************
  Routing Time Step Summary
  *************************
  Minimum Time Step           :     4.50 sec
  Average Time Step           :     5.00 sec
  Maximum Time Step           :     5.00 sec
  Percent in Steady State     :     0.00
  Average Iterations per Step :     2.14
  Percent Not Converging      :     0.20
  
  
  ***************************
  Subcatchment Runoff Summary
  ***************************
  
  ------------------------------------------------------------------------------------------------------------------------------
                            Total      Total      Total      Total     Imperv       Perv      Total       Total     Peak  Runoff
                           Precip      Runon       Evap      Infil     Runoff     Runoff     Runoff      Runoff   Runoff   Coeff
  Subcatchment                 mm         mm         mm         mm         mm         mm         mm    10^6 ltr      CMS
  ------------------------------------------------------------------------------------------------------------------------------
  SC01                      19.88       0.00       0.00       0.00      19.88       0.00      19.88        6.56     2.61   1.000
  SC02                      14.23       0.00       0.00       0.00      14.17       0.00      14.17        3.22     0.94   0.996
  SC03                      16.97       0.00       0.00       0.00      16.95       0.00      16.95        3.05     0.98   0.999
  SC04                      14.23       0.00       0.00       0.00      14.10       0.00      14.10        0.97     0.20   0.991
  SC05                      19.88       0.00       0.00       0.00      19.87       0.00      19.87        3.10     1.15   0.999
  SC06                      29.27       0.00       0.00       0.00      29.15       0.00      29.15        9.49     2.13   0.996
  SC07                      14.23       0.00       0.00       0.00      14.10       0.00      14.10        0.67     0.14   0.991
  SC08                      16.97       0.00       0.00       0.00      16.90       0.00      16.90        4.73     1.11   0.996
  SC09                      29.27       0.00       0.00       0.00      29.23       0.00      29.23        2.02     0.60   0.999
  SC010                     19.88       0.00       0.00       0.00      19.84       0.00      19.84        2.33     0.73   0.998
  
  
  ******************
  Node Depth Summary
  ******************
  
  ---------------------------------------------------------------------------------
                                 Average  Maximum  Maximum  Time of Max    Reported
                                   Depth    Depth      HGL   Occurrence   Max Depth
  Node                 Type       Meters   Meters   Meters  days hr:min      Meters
  ---------------------------------------------------------------------------------
  J1                   JUNCTION     0.06     0.35    34.35     0  09:51        0.34
  J3                   JUNCTION     0.08     0.12    18.12     0  12:30        0.12
  CSO7                 JUNCTION     0.11     1.20    35.20     0  09:41        1.20
  J5                   JUNCTION     0.05     0.17    32.17     0  09:57        0.17
  CSO9                 JUNCTION     0.20     2.00    42.00     0  06:50        2.00
  J8                   JUNCTION     0.10     0.48    36.48     0  09:51        0.48
  CSO8                 JUNCTION     0.15     2.00    34.00     0  09:21        2.00
  J10                  JUNCTION     0.08     0.34    29.34     0  09:42        0.34
  J13                  JUNCTION     0.05     0.25    29.25     0  09:51        0.25
  J15                  JUNCTION     0.14     0.48    15.48     0  09:54        0.48
  J16                  JUNCTION     0.05     0.38    30.38     0  09:51        0.37
  CSO10                JUNCTION     0.12     1.00    31.00     0  06:56        1.00
  J12                  JUNCTION     0.51     1.06    27.06     0  10:12        1.06
  J4                   JUNCTION     0.11     1.17    34.17     0  09:45        0.75
  J6                   JUNCTION     0.05     0.07    25.07     0  11:00        0.07
  J2                   JUNCTION     0.00     0.00    25.00     0  00:00        0.00
  J19                  JUNCTION     0.12     0.17     8.17     0  07:39        0.17
  J9                   JUNCTION     0.07     0.11    29.11     0  09:27        0.11
  J14                  JUNCTION     0.10     0.15    20.15     0  10:07        0.15
  J17                  JUNCTION     0.05     0.08    20.08     0  11:07        0.08
  J7                   JUNCTION     0.07     0.23    39.23     0  10:19        0.23
  J11                  JUNCTION     0.07     0.30    31.30     0  10:06        0.30
  J18                  JUNCTION     0.04     0.16    29.16     0  10:23        0.16
  Out_to_WWTP          OUTFALL      0.12     0.17     6.17     0  09:01        0.17
  T5                   STORAGE      3.56     5.00    32.00     0  07:40        5.00
  T4                   STORAGE      2.81     5.00    32.00     0  10:11        5.00
  T6                   STORAGE      2.98     5.00    36.00     0  07:05        5.00
  T3                   STORAGE      3.10     5.00    27.00     0  10:06        5.00
  T2                   STORAGE      2.96     5.00    26.00     0  10:05        5.00
  T1                   STORAGE      2.84     5.00    15.00     0  07:38        5.00
  
  
  *******************
  Node Inflow Summary
  *******************
  
  -------------------------------------------------------------------------------------------------
                                  Maximum  Maximum                  Lateral       Total        Flow
                                  Lateral    Total  Time of Max      Inflow      Inflow     Balance
                                   Inflow   Inflow   Occurrence      Volume      Volume       Error
  Node                 Type           CMS      CMS  days hr:min    10^6 ltr    10^6 ltr     Percent
  -------------------------------------------------------------------------------------------------
  J1                   JUNCTION     1.170    1.170     0  09:51        4.19        4.19       0.005
  J3                   JUNCTION     0.000    0.152     0  10:41           0        8.04       0.384
  CSO7                 JUNCTION     0.145    0.145     0  09:56        1.23        1.23       0.013
  J5                   JUNCTION     0.201    0.273     0  09:56        1.22        2.37       0.017
  CSO9                 JUNCTION     0.608    0.608     0  07:01         2.4         2.4      -0.026
  J8                   JUNCTION     2.165    2.291     0  09:51        11.3          13       0.009
  CSO8                 JUNCTION     1.123    1.123     0  09:46        5.18        5.18      -0.008
  J10                  JUNCTION     0.992    1.479     0  09:41         3.8        8.55      -0.123
  J13                  JUNCTION     0.958    0.958     0  09:51        4.13        4.13      -0.086
  J15                  JUNCTION     0.000    2.812     0  09:51           0        19.4       0.341
  J16                  JUNCTION     2.627    2.627     0  09:51        7.64        7.64      -0.123
  CSO10                JUNCTION     0.731    0.731     0  09:51         2.6         2.6      -0.056
  J12                  JUNCTION     0.000    1.347     0  09:42           0        12.3       0.931
  J4                   JUNCTION     0.000    0.080     0  09:41           0        1.15       0.066
  J6                   JUNCTION     0.000    0.028     0  10:11           0        1.42       0.216
  J2                   JUNCTION     0.000    0.000     0  00:00           0           0       0.000 ltr
  J19                  JUNCTION     0.000    0.271     0  07:38           0        14.6       0.066
  J9                   JUNCTION     0.000    0.075     0  08:00           0        3.79       0.329
  J14                  JUNCTION     0.000    0.124     0  10:06           0        6.63       0.098
  J17                  JUNCTION     0.000    0.033     0  10:05           0        1.73       0.392
  J7                   JUNCTION     0.000    0.127     0  10:19           0        1.68       0.073
  J11                  JUNCTION     0.000    0.486     0  10:07           0        4.75       0.026
  J18                  JUNCTION     0.000    0.202     0  10:23           0        2.05      -0.053
  Out_to_WWTP          OUTFALL      0.000    0.271     0  07:40           0        14.6       0.000
  T5                   STORAGE      0.000    1.063     0  09:51           0        4.19      13.263
  T4                   STORAGE      0.000    0.261     0  09:57           0        2.37       9.163
  T6                   STORAGE      0.000    2.144     0  09:52           0          13       2.107
  T3                   STORAGE      0.000    1.216     0  10:15           0        12.2      10.663
  T2                   STORAGE      0.000    0.867     0  09:51           0        4.14      20.735
  T1                   STORAGE      0.000    2.045     0  09:54           0        19.4       2.188
  
  
  **********************
  Node Surcharge Summary
  **********************
  
  Surcharging occurs when water rises above the top of the highest conduit.
  ---------------------------------------------------------------------
                                               Max. Height   Min. Depth
                                   Hours       Above Crown    Below Rim
  Node                 Type      Surcharged         Meters       Meters
  ---------------------------------------------------------------------
  CSO7                 JUNCTION        0.88          0.945        0.000
  CSO9                 JUNCTION        1.80          1.682        0.000
  CSO8                 JUNCTION        0.97          1.547        0.000
  CSO10                JUNCTION        1.10          0.560        0.000
  J4                   JUNCTION        0.85          0.873        0.827
  
  
  *********************
  Node Flooding Summary
  *********************
  
  Flooding refers to all water that overflows a node, whether it ponds or not.
  --------------------------------------------------------------------------
                                                             Total   Maximum
                                 Maximum   Time of Max       Flood    Ponded
                        Hours       Rate    Occurrence      Volume     Depth
  Node                 Flooded       CMS   days hr:min    10^6 ltr    Meters
  --------------------------------------------------------------------------
  CSO7                    0.69     0.073      0  09:56       0.081     0.000
  CSO9                    1.33     0.481      0  07:01       0.715     0.000
  CSO8                    0.60     0.636      0  09:46       0.426     0.000
  CSO10                   0.94     0.529      0  09:51       0.556     0.000
  T5                     16.00     1.063      0  09:51       3.202     0.000
  T4                      3.83     0.191      0  10:12       0.486     0.000
  T6                      6.95     2.068      0  09:52       8.761     0.000
  T3                      3.60     1.093      0  10:15       2.223     0.000
  T2                      3.88     0.493      0  10:06       0.955     0.000
  T1                      4.75     1.775      0  09:54       4.039     0.000
  
  
  **********************
  Storage Volume Summary
  **********************
  
  --------------------------------------------------------------------------------------------------
                         Average     Avg  Evap Exfil       Maximum     Max    Time of Max    Maximum
                          Volume    Pcnt  Pcnt  Pcnt        Volume    Pcnt     Occurrence    Outflow
  Storage Unit           1000 m3    Full  Loss  Loss       1000 m3    Full    days hr:min        CMS
  --------------------------------------------------------------------------------------------------
  T5                       0.356      71     0     0         0.500     100       0  07:40      0.000
  T4                       0.281      56     0     0         0.500     100       0  10:11      0.028
  T6                       0.357      60     0     0         0.600     100       0  07:05      0.075
  T3                       1.610      62     0     0         2.600     100       0  10:06      0.247
  T2                       0.592      59     0     0         1.000     100       0  10:05      0.033
  T1                       0.397      57     0     0         0.700     100       0  07:38      0.271
  
  
  ***********************
  Outfall Loading Summary
  ***********************
  
  -----------------------------------------------------------
                         Flow       Avg       Max       Total
                         Freq      Flow      Flow      Volume
  Outfall Node           Pcnt       CMS       CMS    10^6 ltr
  -----------------------------------------------------------
  Out_to_WWTP           99.43     0.172     0.271      14.569
  -----------------------------------------------------------
  System                99.43     0.172     0.271      14.569
  
  
  ********************
  Link Flow Summary
  ********************
  
  -----------------------------------------------------------------------------
                                 Maximum  Time of Max   Maximum    Max/    Max/
                                  |Flow|   Occurrence   |Veloc|    Full    Full
  Link                 Type          CMS  days hr:min     m/sec    Flow   Depth
  -----------------------------------------------------------------------------
  C1                   CONDUIT     0.000     0  00:00      0.00    0.00    0.06
  C6                   CONDUIT     0.072     0  09:56      1.29    1.15    0.79
  C2                   CONDUIT     0.028     0  11:00      0.97    0.03    0.16
  C9                   CONDUIT     0.127     0  10:19      1.22    0.43    0.71
  C16                  CONDUIT     0.488     0  10:02      1.79    0.05    0.16
  C3                   CONDUIT     0.124     0  10:09      1.89    0.05    0.14
  C19                  CONDUIT     0.033     0  11:07      0.65    0.01    0.28
  C11                  CONDUIT     0.152     0  12:30      1.57    0.01    0.15
  C20                  CONDUIT     2.446     0  09:51      6.01    0.08    0.20
  C22                  CONDUIT     0.202     0  10:23      1.72    0.09    0.41
  C12                  CONDUIT     0.075     0  09:26      0.75    0.01    0.29
  C17                  CONDUIT     1.271     0  09:42      3.54    0.06    0.33
  C10                  CONDUIT     2.144     0  09:52      1.73    0.22    0.66
  C13                  CONDUIT     1.216     0  10:15      0.88    0.07    0.77
  C18                  CONDUIT     0.867     0  09:51      1.01    0.03    0.56
  C23                  CONDUIT     2.045     0  09:54      2.99    0.23    0.66
  C4                   CONDUIT     1.063     0  09:51      1.89    0.26    0.67
  C7                   CONDUIT     0.261     0  09:57      0.80    0.06    0.59
  C14                  CONDUIT     0.271     0  07:40      2.08    0.02    0.09
  C5                   CONDUIT     0.080     0  09:41      1.59    1.37    1.00
  C8                   CONDUIT     0.127     0  10:19      2.11    1.60    0.86
  C15                  CONDUIT     0.486     0  10:07      3.50    1.55    0.83
  C21                  CONDUIT     0.202     0  10:23      2.03    1.16    0.69
  V4                   ORIFICE     0.028     0  10:11                      0.35
  V5                   ORIFICE     0.000     0  00:00                      0.00
  V1                   ORIFICE     0.271     0  07:38                      1.00
  V6                   ORIFICE     0.075     0  08:00                      0.43
  V3                   ORIFICE     0.124     0  10:06                      0.65
  V2                   ORIFICE     0.033     0  10:05                      0.24
  
  
  ***************************
  Flow Classification Summary
  ***************************
  
  -------------------------------------------------------------------------------------
                      Adjusted    ---------- Fraction of Time in Flow Class ---------- 
                       /Actual         Up    Down  Sub   Sup   Up    Down  Norm  Inlet 
  Conduit               Length    Dry  Dry   Dry   Crit  Crit  Crit  Crit  Ltd   Ctrl  
  -------------------------------------------------------------------------------------
  C1                      1.00   0.33  0.67  0.00  0.00  0.00  0.00  0.00  0.00  0.00
  C6                      1.00   0.00  0.00  0.00  0.05  0.95  0.00  0.00  0.00  0.00
  C2                      1.00   0.33  0.00  0.00  0.01  0.66  0.00  0.00  0.66  0.00
  C9                      1.00   0.00  0.00  0.00  1.00  0.00  0.00  0.00  1.00  0.00
  C16                     1.00   0.00  0.04  0.00  0.56  0.40  0.00  0.00  0.48  0.00
  C3                      1.00   0.33  0.00  0.00  0.00  0.67  0.00  0.00  0.00  0.00
  C19                     1.00   0.00  0.33  0.00  0.67  0.00  0.00  0.00  0.67  0.00
  C11                     1.00   0.00  0.33  0.00  0.07  0.60  0.00  0.00  0.67  0.00
  C20                     1.00   0.00  0.00  0.00  0.47  0.53  0.00  0.00  0.99  0.00
  C22                     1.00   0.00  0.00  0.00  0.94  0.06  0.00  0.00  1.00  0.00
  C12                     1.00   0.00  0.33  0.00  0.67  0.00  0.00  0.00  0.67  0.00
  C17                     1.00   0.00  0.00  0.00  0.58  0.42  0.00  0.00  0.94  0.00
  C10                     1.00   0.00  0.00  0.00  0.98  0.02  0.00  0.00  0.98  0.00
  C13                     1.00   0.00  0.00  0.00  0.92  0.08  0.00  0.00  0.34  0.00
  C18                     1.00   0.00  0.00  0.00  0.97  0.03  0.00  0.00  0.98  0.00
  C23                     1.00   0.00  0.00  0.00  0.70  0.30  0.00  0.00  0.92  0.00
  C4                      1.00   0.00  0.00  0.00  0.98  0.02  0.00  0.00  0.99  0.00
  C7                      1.00   0.00  0.00  0.00  0.97  0.03  0.00  0.00  0.98  0.00
  C14                     1.00   0.00  0.00  0.00  0.00  1.00  0.00  0.00  0.29  0.00
  C5                      1.00   0.00  0.00  0.00  0.93  0.07  0.00  0.00  0.95  0.00
  C8                      1.00   0.00  0.00  0.00  0.30  0.70  0.00  0.00  0.00  0.00
  C15                     1.00   0.04  0.00  0.00  0.00  0.96  0.00  0.00  0.01  0.00
  C21                     1.00   0.00  0.00  0.00  0.00  1.00  0.00  0.00  0.00  0.00
  
  
  *************************
  Conduit Surcharge Summary
  *************************
  
  ----------------------------------------------------------------------------
                                                           Hours        Hours 
                         --------- Hours Full --------   Above Full   Capacity
  Conduit                Both Ends  Upstream  Dnstream   Normal Flow   Limited
  ----------------------------------------------------------------------------
  C6                          0.01      0.85      0.01      0.73         0.01
  C10                         0.01      0.01     16.73      0.01         0.01
  C13                         0.01      0.01     15.17      0.01         0.01
  C18                         0.01      0.01     14.71      0.01         0.01
  C23                         0.01      0.01     16.57      0.01         0.01
  C4                          0.01      0.01     16.69      0.01         0.01
  C7                          0.01      0.01     16.40      0.01         0.01
  C5                          0.86      0.88      0.96      0.89         0.83
  C8                          0.01      1.80      0.01      1.83         0.01
  C15                         0.01      0.97      0.01      0.98         0.01
  C21                         0.01      1.10      0.01      1.07         0.01
  

  Analysis begun on:  Mon Sep 20 11:17:58 2021
  Analysis ended on:  Mon Sep 20 11:17:58 2021
  Total elapsed time: < 1 sec