
  EPA STORM WATER MANAGEMENT MODEL - VERSION 5.1 (Build 5.3.0.dev0)
  --------------------------------------------------------------

  WARNING 04: minimum elevation drop used for Conduit WS02004404WS02004405
  WARNING 03: negative offset ignored for Link YS02001904YS02001907
  
  *********************************************************
  NOTE: The summary statistics displayed in this report are
  based on results found at every computational time step,  
  not just on results from each reporting time step.
  *********************************************************
  
  ****************
  Analysis Options
  ****************
  Flow Units ............... LPS
  Process Models:
    Rainfall/Runoff ........ YES
    RDII ................... NO
    Snowmelt ............... NO
    Groundwater ............ NO
    Flow Routing ........... YES
    Ponding Allowed ........ NO
    Water Quality .......... YES
  Infiltration Method ...... HORTON
  Flow Routing Method ...... DYNWAVE
  Surcharge Method ......... EXTRAN
  Starting Date ............ 08/28/2015 08:00:00
  Ending Date .............. 08/28/2015 15:50:00
  Antecedent Dry Days ...... 8.0
  Report Time Step ......... 00:01:00
  Wet Time Step ............ 00:01:00
  Dry Time Step ............ 00:01:00
  Routing Time Step ........ 5.00 sec
  Variable Time Step ....... YES
  Maximum Trials ........... 8
  Number of Threads ........ 4
  Head Tolerance ........... 0.001500 m
  
  
  **************************        Volume         Depth
  Runoff Quantity Continuity     hectare-m            mm
  **************************     ---------       -------
  Total Precipitation ......         7.641        16.729
  Evaporation Loss .........         0.000         0.000
  Infiltration Loss ........         1.184         2.592
  Surface Runoff ...........         5.481        12.000
  Final Storage ............         0.977         2.139
  Continuity Error (%) .....        -0.016
  
  
  **************************           COD            SS            TN            TP         NH4-N
  Runoff Quality Continuity             kg            kg            kg            kg            kg
  **************************    ----------    ----------    ----------    ----------    ----------
  Initial Buildup ..........     41378.656     70582.865      1804.177       168.684      1032.807
  Surface Buildup ..........        30.344        63.217         2.449         0.220         1.402
  Wet Deposition ...........         0.000         0.000         0.000         0.000         0.000
  Sweeping Removal .........         0.000         0.000         0.000         0.000         0.000
  Infiltration Loss ........       127.934       247.015         2.452         0.174         1.174
  BMP Removal ..............         0.000         0.000         0.000         0.000         0.000
  Surface Runoff ...........      5553.100     10632.121       107.101         7.411        51.076
  Remaining Buildup ........     35725.917     59762.998      1697.031       161.316       981.940
  Continuity Error (%) .....         0.005         0.006         0.002         0.002         0.002
  
  
  **************************        Volume        Volume
  Flow Routing Continuity        hectare-m      10^6 ltr
  **************************     ---------     ---------
  Dry Weather Inflow .......         0.616         6.165
  Wet Weather Inflow .......         5.479        54.791
  Groundwater Inflow .......         0.000         0.000
  RDII Inflow ..............         0.000         0.000
  External Inflow ..........         0.102         1.024
  External Outflow .........         1.996        19.955
  Flooding Loss ............         3.734        37.337
  Evaporation Loss .........         0.000         0.000
  Exfiltration Loss ........         0.000         0.000
  Initial Stored Volume ....         0.076         0.761
  Final Stored Volume ......         0.657         6.568
  Continuity Error (%) .....        -1.787
  
  
  **************************           COD            SS            TN            TP         NH4-N
  Quality Routing Continuity            kg            kg            kg            kg            kg
  **************************    ----------    ----------    ----------    ----------    ----------
  Dry Weather Inflow .......      1541.201      2465.922       147.955        18.494        92.472
  Wet Weather Inflow .......      5551.928     10630.015       107.076         7.409        51.065
  Groundwater Inflow .......         0.000         0.000         0.000         0.000         0.000
  RDII Inflow ..............         0.000         0.000         0.000         0.000         0.000
  External Inflow ..........       183.418       293.469        17.608         2.201        11.005
  External Outflow .........      2468.295      4396.231       139.302        16.025        83.248
  Flooding Loss ............      4057.793      7664.936       103.949         9.062        54.584
  Exfiltration Loss ........         0.000         0.000         0.000         0.000         0.000
  Mass Reacted .............         0.000         0.000         0.000         0.000         0.000
  Initial Stored Mass ......         0.000         0.000         0.000         0.000         0.000
  Final Stored Mass ........       638.160      1142.168        25.875         2.704        14.823
  Continuity Error (%) .....         1.543         1.390         1.289         1.118         1.221
  
  
  *************************
  Highest Continuity Errors
  *************************
  Node HS02004842 (10.96%)
  Node JK-storage (-9.14%)
  Node YS02001884 (9.03%)
  Node HS02004817 (2.13%)
  Node YSB1171 (1.97%)
  
  
  ***************************
  Time-Step Critical Elements
  ***************************
  Link WS02006252WS02006251 (67.56%)
  Link WS02006280WS02006229 (8.50%)
  Link WS02006238WS02006235 (6.00%)
  Link YS02001793JiankangQianchi (2.93%)
  Link YS02001661YS02001658 (2.76%)
  
  
  ********************************
  Highest Flow Instability Indexes
  ********************************
  Link WS02006113WS02006111 (43)
  Link YS02163301YS02001633 (28)
  Link YS02163601YS02164001 (28)
  Link YS02001629YS02163301 (28)
  Link YS02001619YS02001622 (27)
  
  
  *************************
  Routing Time Step Summary
  *************************
  Minimum Time Step           :     0.31 sec
  Average Time Step           :     1.12 sec
  Maximum Time Step           :     5.00 sec
  Percent in Steady State     :    -0.00
  Average Iterations per Step :     3.70
  Percent Not Converging      :    11.79
  
  
  ***************************
  Subcatchment Runoff Summary
  ***************************
  
  ------------------------------------------------------------------------------------------------------------------------------
                            Total      Total      Total      Total     Imperv       Perv      Total       Total     Peak  Runoff
                           Precip      Runon       Evap      Infil     Runoff     Runoff     Runoff      Runoff   Runoff   Coeff
  Subcatchment                 mm         mm         mm         mm         mm         mm         mm    10^6 ltr      LPS
  ------------------------------------------------------------------------------------------------------------------------------
  sub0                      16.73       0.00       0.00       0.71      15.51       0.47      15.98        0.01     3.87   0.955
  sub1                      16.73       0.00       0.00       1.18      14.80       0.66      15.46        0.10    26.74   0.924
  sub2                      16.73       0.00       0.00       4.79      10.46       1.40      11.85        0.11    25.81   0.708
  sub3                      16.73       0.00       0.00       5.01      10.42       1.18      11.60        0.26    56.97   0.693
  sub4                      16.73       0.00       0.00       1.28      14.64       0.56      15.20        0.32    66.74   0.909
  sub5                      16.73       0.00       0.00       0.73      15.46       0.44      15.91        0.18    46.91   0.951
  sub7                      16.73       0.00       0.00       0.93      15.16       0.58      15.74        0.05    14.85   0.941
  sub8                      16.73       0.00       0.00       0.94      15.15       0.57      15.72        0.10    27.42   0.940
  sub9                      16.73       0.00       0.00       0.94      15.15       0.57      15.72        0.08    20.52   0.940
  sub10                     16.73       0.00       0.00       0.83      15.30       0.50      15.81        0.17    46.04   0.945
  sub11                     16.73       0.00       0.00       0.83      15.32       0.51      15.83        0.18    50.62   0.947
  sub12                     16.73       0.00       0.00       1.34      14.51       0.83      15.34        0.13    39.22   0.917
  sub14                     16.73       0.00       0.00       0.94      15.15       0.57      15.72        0.15    40.40   0.939
  sub15                     16.73       0.00       0.00       3.54      11.65       1.48      13.13        0.23    57.86   0.785
  sub16                     16.73       0.00       0.00       3.72      11.17       1.80      12.97        0.14    37.34   0.776
  sub17                     16.73       0.00       0.00       3.62      11.33       1.73      13.07        0.11    30.57   0.781
  sub22                     16.73       0.00       0.00       5.27       9.49       1.92      11.42        0.72   183.11   0.683
  sub23                     16.73       0.00       0.00       4.37      10.50       1.82      12.32        0.59   153.57   0.736
  sub60                     16.73       0.00       0.00       1.74      12.78       0.27      13.05        3.96   446.24   0.780
  sub61                     16.73       0.00       0.00       2.46      12.72       0.38      13.11        4.04   542.53   0.784
  sub62                     16.73       0.00       0.00       1.06      13.91       0.27      14.19        4.36   558.01   0.848
  sub63                     16.73       0.00       0.00       4.39      11.06       0.46      11.52        3.49   496.40   0.689
  sub64                     16.73       0.00       0.00       2.23      12.28       0.28      12.56        3.82   424.95   0.751
  sub65                     16.73       0.00       0.00       1.91      12.51       0.27      12.77        3.93   431.32   0.764
  sub66                     16.73       0.00       0.00       4.54      10.46       0.31      10.78        3.31   388.44   0.644
  sub67                     16.73       0.00       0.00       1.01      14.45       0.32      14.78        4.56   675.76   0.883
  sub68                     16.73       0.00       0.00       1.95      13.33       0.39      13.71        4.22   589.75   0.820
  sub69                     16.73       0.00       0.00       2.00      13.62       0.51      14.12        3.30   542.07   0.844
  sub70                     16.73      14.42       0.00       8.47      19.01       2.12      21.13        4.84   534.50   0.678
  sub71                     16.73       0.00       0.00       1.08      13.65       0.25      13.90        3.28   394.68   0.831
  sub72                     16.73       0.00       0.00       1.02      11.50       0.15      11.65        2.37   206.66   0.697
  1                         16.73      20.58       0.00       1.37      22.38       7.20      29.58        6.95   612.18   0.793
  2                         16.73       0.00       0.00       3.02       4.04       3.18       7.22        2.89   331.58   0.431
  
  
  ****************************
  Subcatchment Washoff Summary
  ****************************
  
  ------------------------------------------------------------------------------------------
                                 COD            SS            TN            TP         NH4-N
  Subcatchment                    kg            kg            kg            kg            kg
  ------------------------------------------------------------------------------------------
  sub0                         3.641         7.161         0.064         0.005         0.031
  sub1                        15.670        31.767         0.296         0.021         0.143
  sub2                        10.304        20.454         0.214         0.015         0.099
  sub3                        25.293        49.815         0.517         0.036         0.240
  sub4                        36.168        74.260         0.714         0.044         0.344
  sub5                        35.763        71.366         0.649         0.050         0.316
  sub7                         7.894        16.212         0.150         0.010         0.073
  sub8                        11.755        24.726         0.234         0.014         0.113
  sub9                        10.113        20.966         0.196         0.013         0.095
  sub10                       29.347        59.341         0.545         0.040         0.265
  sub11                       28.395        58.052         0.536         0.037         0.260
  sub12                       24.463        49.072         0.450         0.034         0.218
  sub14                       21.697        44.543         0.414         0.028         0.200
  sub15                       29.696        58.821         0.572         0.042         0.270
  sub16                       19.246        38.050         0.367         0.028         0.174
  sub17                       17.687        34.653         0.330         0.026         0.156
  sub22                       95.915       186.896         1.820         0.139         0.857
  sub23                       54.382       109.539         1.141         0.076         0.527
  sub60                      353.947       679.509         6.988         0.437         3.357
  sub61                      439.695       840.113         8.188         0.570         3.952
  sub62                      449.790       873.119         8.744         0.564         4.209
  sub63                      328.186       618.356         6.505         0.463         3.037
  sub64                      450.924       835.563         8.299         0.611         3.976
  sub65                      460.537       856.688         8.527         0.617         4.090
  sub66                      259.427       485.147         5.248         0.348         2.463
  sub67                      667.181      1281.068        12.075         0.900         5.853
  sub68                      479.473       924.467         9.153         0.628         4.389
  sub69                      429.286       835.450         8.068         0.576         3.873
  sub70                      758.301      1478.311        15.194         1.074         7.173
  sub71                      296.268       580.620         6.027         0.356         2.890
  sub72                      247.759       452.374         4.612         0.320         2.223
  1                          576.917      1130.968        11.723         0.829         5.484
  2                           65.566       118.435         1.802         0.109         0.773
  ------------------------------------------------------------------------------------------
  System                    6740.687     12945.882       130.363         9.060        62.122
  
  
  ******************
  Node Depth Summary
  ******************
  
  ---------------------------------------------------------------------------------
                                 Average  Maximum  Maximum  Time of Max    Reported
                                   Depth    Depth      HGL   Occurrence   Max Depth
  Node                 Type       Meters   Meters   Meters  days hr:min      Meters
  ---------------------------------------------------------------------------------
  WS02001211           JUNCTION     0.77     0.85     5.69     0  02:02        0.85
  WS02001212           JUNCTION     0.48     0.58     5.64     0  02:02        0.58
  WS02001213           JUNCTION     0.72     0.86     5.62     0  02:02        0.86
  WS02003069           JUNCTION     0.51     0.72     5.31     0  02:01        0.72
  WS02003072           JUNCTION     0.57     0.77     5.14     0  02:01        0.77
  WS02003073           JUNCTION     0.35     0.48     4.55     0  02:02        0.48
  WS02003060           JUNCTION     0.45     0.64     5.57     0  02:00        0.64
  WS02003066           JUNCTION     0.24     0.39     5.94     0  01:55        0.39
  WS02003059           JUNCTION     0.76     0.91     5.60     0  02:01        0.91
  WS02003067           JUNCTION     0.59     0.83     6.15     0  01:54        0.83
  WS02004401           JUNCTION     0.72     1.31     7.31     0  01:52        1.29
  WS02004402           JUNCTION     0.74     1.30     7.26     0  01:52        1.27
  WS02004403           JUNCTION     0.76     1.27     7.20     0  01:52        1.24
  WS02004404           JUNCTION     0.84     1.31     7.16     0  01:52        1.28
  WS02004406           JUNCTION     0.84     1.21     7.04     0  01:52        1.18
  WS02004409           JUNCTION     0.52     0.98     6.75     0  01:55        0.98
  WS02004410           JUNCTION     0.54     0.97     6.69     0  01:55        0.96
  WS02004411           JUNCTION     0.55     0.94     6.62     0  01:55        0.94
  WS02004412           JUNCTION     0.57     0.92     6.56     0  01:55        0.92
  WS02004413           JUNCTION     0.73     1.03     6.50     0  01:54        1.03
  WS02004405           JUNCTION     0.83     1.28     7.13     0  01:52        1.25
  WS02006109           JUNCTION     0.81     1.76     8.38     0  01:53        1.75
  WS02006110           JUNCTION     0.79     1.55     8.13     0  01:52        1.54
  WS02006111           JUNCTION     0.25     1.01     7.72     0  01:52        0.97
  WS02006112           JUNCTION     0.89     1.66     7.54     0  01:52        1.64
  WS02006113           JUNCTION     0.37     1.06     7.96     0  01:52        1.02
  WS02006115           JUNCTION     0.61     1.32     7.46     0  01:52        1.29
  WS02006116           JUNCTION     0.69     1.35     7.39     0  01:52        1.33
  WS02006230           JUNCTION     0.81     1.99     8.73     0  01:53        1.97
  WS02006231           JUNCTION     0.56     1.62     8.75     0  01:53        1.60
  WS02006232           JUNCTION     0.69     1.71     8.75     0  01:53        1.68
  WS02006234           JUNCTION     0.61     1.60     8.75     0  01:53        1.59
  WS02006235           JUNCTION     0.65     1.60     8.77     0  01:53        1.58
  WS02006238           JUNCTION     0.67     1.62     8.76     0  01:53        1.60
  WS02006240           JUNCTION     0.55     1.44     8.74     0  01:53        1.43
  WS02006242           JUNCTION     0.60     1.46     8.73     0  01:53        1.45
  WS02006243           JUNCTION     0.47     1.30     8.72     0  01:53        1.28
  WS02006245           JUNCTION     0.44     1.22     8.71     0  01:53        1.22
  WS02006247           JUNCTION     0.44     1.20     8.70     0  01:53        1.20
  WS02006248           JUNCTION     0.38     1.10     8.69     0  01:50        1.10
  WS02006249           JUNCTION     0.40     1.09     8.69     0  01:50        1.09
  WS02006239           JUNCTION     0.62     1.54     8.75     0  01:53        1.52
  WS02006251           JUNCTION     0.36     1.23     8.90     0  01:51        1.05
  WS02006252           JUNCTION     0.25     0.66     8.90     0  01:51        0.48
  WS02006253           JUNCTION     0.39     1.33     8.98     0  01:51        1.08
  WS02006256           JUNCTION     1.79     2.35     9.28     0  00:00        2.35
  WS02004138           JUNCTION     0.19     0.20     7.45     0  00:00        0.19
  WS02004139           JUNCTION     0.72     0.79     5.70     0  02:02        0.79
  WS02004407           JUNCTION     0.23     0.40     6.72     0  01:53        0.40
  WS02006228           JUNCTION     0.82     1.94     8.59     0  01:53        1.93
  WS02006229           JUNCTION     0.81     2.02     8.72     0  01:53        2.00
  WS02006280           JUNCTION     0.08     0.33     8.60     0  01:52        0.31
  WS02006284           JUNCTION     0.38     0.66     9.06     0  01:54        0.66
  WS02006287           JUNCTION     0.11     0.40     9.36     0  01:54        0.40
  WSF200               JUNCTION     0.23     0.44     5.68     0  01:55        0.44
  HS02004901           JUNCTION     0.14     0.38    10.21     0  01:53        0.38
  HS02004881           JUNCTION     0.01     0.05     9.08     0  01:54        0.05
  HS02004876           JUNCTION     0.05     0.17     9.20     0  01:54        0.17
  HS02004870           JUNCTION     0.02     0.10     9.38     0  01:54        0.10
  HS02004862           JUNCTION     0.02     0.11     9.50     0  01:55        0.11
  HS02004856           JUNCTION     0.08     0.15     9.58     0  01:54        0.15
  HS02004852           JUNCTION     0.01     0.08     9.59     0  01:54        0.08
  HS02004848           JUNCTION     0.01     0.07     9.67     0  01:54        0.07
  HS02004842           JUNCTION     0.34     0.40     9.67     0  01:54        0.40
  HS02004837           JUNCTION     0.03     0.09     9.67     0  01:54        0.09
  HS02004830           JUNCTION     0.04     0.11     9.58     0  01:55        0.11
  HS02004824           JUNCTION     0.03     0.15     9.55     0  01:54        0.15
  HS02004817           JUNCTION     0.45     0.71     9.56     0  01:54        0.71
  HS02004807           JUNCTION     0.14     0.38     9.55     0  01:55        0.38
  HS02004802           JUNCTION     0.17     0.41     9.54     0  01:55        0.41
  HS02004799           JUNCTION     0.13     0.48     9.69     0  01:53        0.48
  HS02004792           JUNCTION     0.04     0.22     9.75     0  01:53        0.22
  HS02004788           JUNCTION     0.03     0.16    10.06     0  01:54        0.16
  HS02004785           JUNCTION     0.05     0.25    10.15     0  01:53        0.25
  HS02004777           JUNCTION     0.16     0.40    10.20     0  01:53        0.40
  HS02004770           JUNCTION     0.13     0.37    10.21     0  01:53        0.37
  HS02004480           JUNCTION     0.09     0.39     9.64     0  01:53        0.39
  HS02004479           JUNCTION     0.13     0.43     9.64     0  01:53        0.43
  HS02004478           JUNCTION     0.07     0.29     9.52     0  01:54        0.29
  YS02001745           JUNCTION     0.80     0.98     8.49     0  02:38        0.98
  YS02001748           JUNCTION     1.20     1.42     8.49     0  02:42        1.41
  YS02001751           JUNCTION     1.39     1.61     8.49     0  02:41        1.60
  YS02001754           JUNCTION     1.64     1.87     8.47     0  02:41        1.86
  YS02001762           JUNCTION     1.84     2.06     8.46     0  02:40        2.06
  YS02001765           JUNCTION     1.79     2.01     8.46     0  02:41        2.00
  YS02001767           JUNCTION     1.76     1.97     8.45     0  02:40        1.96
  YS02001770           JUNCTION     1.75     1.95     8.44     0  02:40        1.94
  YS02001774           JUNCTION     1.82     2.00     8.42     0  02:41        1.99
  YS02001779           JUNCTION     1.56     1.68     8.37     0  01:51        1.68
  YS02001882           JUNCTION     0.67     1.83     8.55     0  01:48        1.63
  YS02001884           JUNCTION     0.76     1.93     8.55     0  01:48        1.73
  YS02001759           JUNCTION     1.88     2.11     8.47     0  02:41        2.10
  YS02001887           JUNCTION     0.84     1.94     8.48     0  01:48        1.81
  YS02001890           JUNCTION     0.87     1.81     8.32     0  01:48        1.81
  YS02001898           JUNCTION     0.64     1.57     8.30     0  01:51        1.56
  YS02001901           JUNCTION     0.75     1.68     8.29     0  02:00        1.67
  YS02001904           JUNCTION     0.73     1.64     8.27     0  02:14        1.63
  YS02001907           JUNCTION     1.06     1.96     8.25     0  01:51        1.96
  YS02001910           JUNCTION     0.85     1.85     8.36     0  01:51        1.79
  YS02001915           JUNCTION     0.65     1.71     8.43     0  01:51        1.62
  YS02001918           JUNCTION     0.40     1.49     8.56     0  01:51        1.35
  YS02001619           JUNCTION     1.34     1.58     8.51     0  01:45        1.48
  YS02001629           JUNCTION     1.69     1.85     8.40     0  01:46        1.84
  YS02001641           JUNCTION     1.79     1.94     8.37     0  01:48        1.93
  YS02001644           JUNCTION     1.79     1.92     8.35     0  01:48        1.92
  YS02001652           JUNCTION     1.65     1.93     8.52     0  04:07        1.85
  YS02001655           JUNCTION     1.41     1.75     8.60     0  04:06        1.64
  YS02001920           JUNCTION     0.50     1.63     8.64     0  01:51        1.46
  YS02001923           JUNCTION     0.33     1.42     8.68     0  01:51        1.25
  YS02001926           JUNCTION     0.36     1.37     8.81     0  01:51        1.12
  YS02001929           JUNCTION     0.22     0.97     8.66     0  01:52        0.94
  YS02001658           JUNCTION     1.14     1.56     8.71     0  04:06        1.40
  YS02001661           JUNCTION     0.90     1.40     8.81     0  04:05        1.23
  YS02001664           JUNCTION     0.41     0.57     8.49     0  04:11        0.55
  YS02001622           JUNCTION     1.36     1.57     8.48     0  01:45        1.50
  YS02001633           JUNCTION     1.79     1.95     8.40     0  01:49        1.94
  YS02001649           JUNCTION     1.85     2.05     8.44     0  02:28        2.05
  YS02001757           JUNCTION     1.98     2.21     8.47     0  02:41        2.20
  YS02001895           JUNCTION     0.63     1.57     8.31     0  01:55        1.56
  YS02001625           JUNCTION     1.64     1.78     8.38     0  01:45        1.78
  YS02163301           JUNCTION     1.72     1.89     8.40     0  01:46        1.88
  YS02163601           JUNCTION     1.84     1.99     8.39     0  01:51        1.99
  YS02164001           JUNCTION     1.77     1.92     8.37     0  03:03        1.91
  YS02001647           JUNCTION     1.63     1.79     8.40     0  04:09        1.79
  YSB1154              JUNCTION     0.27     0.58     9.64     0  01:53        0.58
  YSB6556              JUNCTION     0.16     0.47     9.64     0  01:53        0.47
  YSB1174              JUNCTION     0.22     0.53     9.64     0  01:53        0.53
  YSB1171              JUNCTION     0.42     0.74     9.64     0  01:53        0.74
  YS02006553           JUNCTION     1.06     1.97     8.25     0  02:16        1.96
  YS02006561           JUNCTION     0.40     1.38     8.04     0  01:49        1.35
  YS02006556           JUNCTION     1.03     1.94     8.25     0  02:14        1.93
  YS02006558           JUNCTION     1.07     1.98     8.25     0  02:14        1.97
  YS02001783           JUNCTION     0.62     1.70     7.85     0  01:49        1.68
  YS02001784           JUNCTION     0.63     1.56     7.63     0  01:49        1.55
  YS02001786           JUNCTION     0.56     1.36     7.39     0  01:49        1.30
  YS02001788           JUNCTION     0.48     1.38     7.35     0  01:45        1.12
  YS02001790           JUNCTION     0.60     1.75     7.40     0  01:44        1.29
  YS02001791           JUNCTION     0.57     1.71     7.18     0  06:06        1.27
  YS02001793           JUNCTION     0.80     2.30     7.13     0  01:43        1.80
  WSC                  OUTFALL      0.35     0.48     1.15     0  02:02        0.48
  JK-storage           STORAGE      3.15     5.80     6.60     0  01:44        5.80
  CC-storage           STORAGE      1.23     1.47     8.47     0  02:35        1.47
  XR-storage           STORAGE      7.15     7.72     5.72     0  02:04        7.72
  
  
  *******************
  Node Inflow Summary
  *******************
  
  -------------------------------------------------------------------------------------------------
                                  Maximum  Maximum                  Lateral       Total        Flow
                                  Lateral    Total  Time of Max      Inflow      Inflow     Balance
                                   Inflow   Inflow   Occurrence      Volume      Volume       Error
  Node                 Type           LPS      LPS  days hr:min    10^6 ltr    10^6 ltr     Percent
  -------------------------------------------------------------------------------------------------
  WS02001211           JUNCTION      7.35   390.27     0  02:28       0.207        10.2       0.391
  WS02001212           JUNCTION      0.00   392.97     0  02:28           0        10.2       0.215
  WS02001213           JUNCTION      0.00   395.51     0  02:27           0        10.1       0.290
  WS02003069           JUNCTION      0.32  1344.62     0  02:00     0.00902          20       0.158
  WS02003072           JUNCTION      0.00  1344.65     0  02:01           0          20       0.192
  WS02003073           JUNCTION      1.82  1346.87     0  02:01      0.0514          20       0.217
  WS02003060           JUNCTION     16.53  1344.21     0  02:01       0.466          20       0.148
  WS02003066           JUNCTION      0.00   958.20     0  01:55           0        9.51       0.040
  WS02003059           JUNCTION      0.00   398.65     0  02:27           0        10.1       0.384
  WS02003067           JUNCTION      0.00   957.84     0  01:55           0        9.52       0.086
  WS02004401           JUNCTION      0.00   971.09     0  01:53           0        9.72       0.192
  WS02004402           JUNCTION      0.00   970.70     0  01:53           0         9.7       0.183
  WS02004403           JUNCTION      0.00   971.63     0  01:53           0        9.69       0.169
  WS02004404           JUNCTION      0.16   972.23     0  01:53     0.00457        9.67       0.130
  WS02004406           JUNCTION      0.00   973.25     0  01:53           0        9.64       0.317
  WS02004409           JUNCTION      0.00   971.35     0  01:53           0        9.61       0.138
  WS02004410           JUNCTION      0.00   959.05     0  01:54           0        9.59       0.159
  WS02004411           JUNCTION      0.00   956.21     0  01:55           0        9.58       0.167
  WS02004412           JUNCTION      0.00   957.75     0  01:55           0        9.56       0.184
  WS02004413           JUNCTION      0.00   957.90     0  01:55           0        9.55       0.280
  WS02004405           JUNCTION      0.04   973.81     0  01:53     0.00107        9.66       0.193
  WS02006109           JUNCTION      1.23   939.55     0  01:53      0.0347        9.72       0.178
  WS02006110           JUNCTION      0.00   939.27     0  01:53           0         9.7       0.172
  WS02006111           JUNCTION      0.00   938.90     0  01:53           0        9.67       0.033
  WS02006112           JUNCTION     30.57   969.33     0  01:53       0.112        9.78       0.282
  WS02006113           JUNCTION      0.00   939.32     0  01:53           0        9.68       0.088
  WS02006115           JUNCTION      0.00   969.71     0  01:53           0        9.75       0.176
  WS02006116           JUNCTION      0.00   970.68     0  01:53           0        9.74       0.150
  WS02006230           JUNCTION     10.28   432.08     0  05:11        0.29        6.62       0.203
  WS02006231           JUNCTION      0.00   421.95     0  05:11           0        6.34       0.102
  WS02006232           JUNCTION      0.00   421.95     0  05:11           0        6.35       0.237
  WS02006234           JUNCTION      0.00   421.95     0  05:11           0        6.35       0.083
  WS02006235           JUNCTION      0.00   421.95     0  05:11           0        6.45       0.143
  WS02006238           JUNCTION      0.00   209.54     0  02:52           0        2.71       0.208
  WS02006240           JUNCTION      0.00   209.50     0  02:52           0        2.65       0.369
  WS02006242           JUNCTION      0.00   209.51     0  02:52           0        2.63       0.497
  WS02006243           JUNCTION      0.00   209.53     0  02:52           0        2.62       0.218
  WS02006245           JUNCTION      0.00   209.54     0  02:52           0        2.61       0.465
  WS02006247           JUNCTION      0.00   209.55     0  02:52           0        2.61       0.263
  WS02006248           JUNCTION      0.00   209.69     0  02:52           0        2.62       0.097
  WS02006249           JUNCTION      0.00   209.74     0  02:52           0        2.71       0.429
  WS02006239           JUNCTION      0.00   209.50     0  02:52           0        2.68       0.247
  WS02006251           JUNCTION      0.08   220.72     0  02:50     0.00217        2.73       0.295
  WS02006252           JUNCTION      0.00   200.00     0  03:30           0         2.1       0.023
  WS02006253           JUNCTION      3.87   156.77     0  01:54      0.0129        0.63       0.574
  WS02006256           JUNCTION      0.00   983.00     0  02:00           0        11.8      -0.008
  WS02004138           JUNCTION      0.00   380.00     0  00:00           0          10       0.064
  WS02004139           JUNCTION      0.32   395.85     0  00:00     0.00905          10       0.449
  WS02004407           JUNCTION      0.00   973.72     0  01:53           0        9.61       0.063
  WS02006228           JUNCTION      0.00   938.16     0  01:53           0        9.69       0.139
  WS02006229           JUNCTION      0.00   994.76     0  01:52           0        9.71       0.146
  WS02006280           JUNCTION      0.00   736.09     0  01:54           0        3.11       0.008
  WS02006284           JUNCTION      0.10   735.83     0  01:54      0.0027        3.11       0.020
  WS02006287           JUNCTION      0.00   735.65     0  01:54           0        3.11       0.023
  WSF200               JUNCTION      0.00   958.27     0  01:56           0        9.51       0.035
  HS02004901           JUNCTION     37.34    37.34     0  01:51       0.136       0.136       1.311
  HS02004881           JUNCTION     14.85   153.29     0  01:54       0.053       0.601       0.097
  HS02004876           JUNCTION     26.74   139.06     0  01:54       0.103       0.549       0.099
  HS02004870           JUNCTION     27.42   112.65     0  01:54         0.1       0.446       0.024
  HS02004862           JUNCTION     26.01    86.18     0  01:54       0.116       0.346       0.050
  HS02004856           JUNCTION     20.52    60.23     0  01:54      0.0756       0.231       0.629
  HS02004852           JUNCTION      0.00    40.37     0  01:54           0       0.155       0.036
  HS02004848           JUNCTION     56.97    56.97     0  01:56       0.261       0.261       0.018
  HS02004842           JUNCTION      0.00    18.18     0  02:06           0       0.119      12.306
  HS02004837           JUNCTION     52.39    67.87     0  01:54       0.353       0.459       0.177
  HS02004830           JUNCTION      0.15    67.98     0  01:54     0.00423       0.449       0.276
  HS02004824           JUNCTION     66.79   134.68     0  01:56       0.318       0.767       0.071
  HS02004817           JUNCTION      0.60   136.87     0  01:57      0.0169       0.783       2.176
  HS02004807           JUNCTION     50.62   184.26     0  01:55       0.184       0.952       0.460
  HS02004802           JUNCTION      0.00   183.95     0  01:56           0        0.95       0.417
  HS02004799           JUNCTION     40.40   470.75     0  01:53        0.15        1.87       0.159
  HS02004792           JUNCTION    183.39   430.98     0  01:53       0.729        1.72       0.023
  HS02004788           JUNCTION     59.53   248.80     0  01:53       0.273       0.991       0.039
  HS02004785           JUNCTION      0.15   189.56     0  01:53     0.00423        0.72       0.069
  HS02004777           JUNCTION      0.03   189.71     0  01:52    0.000846        0.72       0.728
  HS02004770           JUNCTION    153.57   190.37     0  01:52       0.587       0.722       0.429
  HS02004480           JUNCTION      0.00   554.34     0  01:53           0        2.18       0.044
  HS02004479           JUNCTION      0.00    83.75     0  01:53           0       0.323       0.229
  HS02004478           JUNCTION      0.00   735.60     0  01:54           0        3.11       0.010
  YS02001745           JUNCTION    446.25   446.25     0  02:16        3.95        3.95       0.286
  YS02001748           JUNCTION      0.04   449.16     0  02:16     0.00127        3.94       0.588
  YS02001751           JUNCTION      0.01   450.33     0  02:16     0.00031        3.92       0.608
  YS02001754           JUNCTION      0.26   449.92     0  02:16     0.00733        3.91       0.638
  YS02001762           JUNCTION      0.00   434.49     0  01:55           0        2.46       0.868
  YS02001765           JUNCTION      0.00   435.58     0  01:55           0        2.46       0.998
  YS02001767           JUNCTION      0.54   434.92     0  01:55      0.0151        2.48       1.456
  YS02001770           JUNCTION    558.16   788.43     0  02:39        4.36        5.62       0.558
  YS02001774           JUNCTION      0.00   788.59     0  02:40           0        4.37       0.570
  YS02001779           JUNCTION      0.01   788.69     0  02:40    0.000141        4.34       0.361
  YS02001882           JUNCTION      0.00    63.81     0  01:48           0      0.0319       6.515
  YS02001884           JUNCTION      0.00    72.35     0  01:47           0      0.0692       9.921
  YS02001759           JUNCTION    542.57   876.49     0  01:56        4.04        5.22       0.440
  YS02001887           JUNCTION    676.21   677.02     0  02:13        4.57         4.6       0.187
  YS02001890           JUNCTION      0.00   677.67     0  02:13           0        4.56       0.199
  YS02001898           JUNCTION      0.00   525.06     0  01:51           0        4.27       0.077
  YS02001901           JUNCTION      0.00   525.50     0  01:51           0        4.27       0.150
  YS02001904           JUNCTION      0.00   526.86     0  01:51           0        4.26       0.137
  YS02001907           JUNCTION      0.00  1165.84     0  01:52           0        9.98       0.245
  YS02001910           JUNCTION      0.00   650.94     0  01:52           0        5.74       0.219
  YS02001915           JUNCTION    394.70   651.23     0  01:52        3.28        5.79       0.094
  YS02001918           JUNCTION      0.00   368.45     0  01:52           0        2.54       0.058
  YS02001619           JUNCTION    388.44   388.44     0  02:16         3.3         3.3       0.369
  YS02001629           JUNCTION      0.00   217.69     0  01:48           0        1.43       2.040
  YS02001641           JUNCTION      0.00   455.66     0  01:48           0        5.09       0.416
  YS02001644           JUNCTION    424.99  1620.46     0  02:31        3.82          15       0.180
  YS02001652           JUNCTION      0.00   514.90     0  02:10           0        3.44       0.674
  YS02001655           JUNCTION      0.15   513.63     0  02:12     0.00434        3.46       0.726
  YS02001920           JUNCTION      2.87   367.61     0  01:52      0.0809        2.52       0.115
  YS02001923           JUNCTION      0.04   300.88     0  01:53     0.00106        2.42       0.050
  YS02001926           JUNCTION      0.05   348.76     0  01:51     0.00147        2.39       0.131
  YS02001929           JUNCTION    206.66   206.66     0  03:01        2.37        2.38       0.024
  YS02001658           JUNCTION      0.00   516.27     0  02:10           0        3.48       0.700
  YS02001661           JUNCTION      0.00   750.29     0  01:56           0        3.91      -0.068
  YS02001664           JUNCTION    496.40   496.40     0  02:16        3.49        3.92       0.152
  YS02001622           JUNCTION      0.00   389.12     0  02:16           0        3.29       0.973
  YS02001633           JUNCTION    431.52   455.17     0  01:48        3.93        5.24       0.613
  YS02001649           JUNCTION      0.00  1017.02     0  02:39           0        8.02       0.461
  YS02001757           JUNCTION      0.00  2144.50     0  01:55           0        9.72       0.943
  YS02001895           JUNCTION      0.00   523.89     0  01:51           0        4.27       0.117
  YS02001625           JUNCTION      0.00   435.79     0  02:16           0        3.34       1.190
  YS02163301           JUNCTION      0.00   226.39     0  01:45           0        1.42       1.704
  YS02163601           JUNCTION      0.11   455.34     0  01:48      0.0031        5.11       0.590
  YS02164001           JUNCTION      0.00   455.15     0  01:48           0        5.09       0.392
  YS02001647           JUNCTION      0.00   846.70     0  02:48           0         7.1       0.399
  YSB1154              JUNCTION     46.91    46.91     0  01:52        0.18       0.181       0.805
  YSB6556              JUNCTION      0.00    46.64     0  01:52           0       0.182       0.696
  YSB1174              JUNCTION     39.22    39.22     0  01:50       0.134       0.134       0.962
  YSB1171              JUNCTION      0.00    84.02     0  01:52           0       0.322       2.011
  YS02006553           JUNCTION      0.00   717.83     0  03:35           0        7.29       0.208
  YS02006561           JUNCTION      0.00   982.85     0  02:12           0        11.5       0.007
  YS02006556           JUNCTION      0.00   717.93     0  03:35           0        7.29       0.150
  YS02006558           JUNCTION    590.63   984.06     0  02:12        4.24        11.5       0.042
  YS02001783           JUNCTION      0.00   982.96     0  02:09           0        11.5       0.020
  YS02001784           JUNCTION      1.06   985.00     0  02:10      0.0299        11.5       0.030
  YS02001786           JUNCTION      0.06   984.14     0  02:11     0.00159        11.5       0.030
  YS02001788           JUNCTION      0.07   983.79     0  02:14       0.002        11.5       0.017
  YS02001790           JUNCTION      0.15   984.16     0  02:15     0.00437        11.5       0.010
  YS02001791           JUNCTION      0.00   983.77     0  02:11           0        11.5       0.009
  YS02001793           JUNCTION      0.00   985.59     0  02:09           0        11.5      -0.031
  WSC                  OUTFALL       0.00  1347.52     0  02:02           0          20       0.000
  JK-storage           STORAGE       0.00   984.44     0  02:11           0        11.7      -8.373
  CC-storage           STORAGE       0.00  2147.02     0  01:55           0        6.01       1.082
  XR-storage           STORAGE    1054.62  1054.62     0  03:01        15.5        16.1      -0.004
  
  
  **********************
  Node Surcharge Summary
  **********************
  
  Surcharging occurs when water rises above the top of the highest conduit.
  ---------------------------------------------------------------------
                                               Max. Height   Min. Depth
                                   Hours       Above Crown    Below Rim
  Node                 Type      Surcharged         Meters       Meters
  ---------------------------------------------------------------------
  WS02004401           JUNCTION        0.69          0.313        1.347
  WS02004402           JUNCTION        0.75          0.297        1.443
  WS02004403           JUNCTION        0.78          0.269        1.761
  WS02004404           JUNCTION        1.36          0.311        2.469
  WS02004406           JUNCTION        1.05          0.206        2.244
  WS02004413           JUNCTION        0.42          0.032        2.168
  WS02004405           JUNCTION        1.17          0.279        2.521
  WS02006109           JUNCTION        3.24          0.939        0.881
  WS02006110           JUNCTION        1.59          0.637        1.213
  WS02006111           JUNCTION        0.34          0.202        1.668
  WS02006112           JUNCTION        1.66          0.662        1.018
  WS02006113           JUNCTION        0.37          0.264        1.666
  WS02006115           JUNCTION        0.58          0.308        1.942
  WS02006116           JUNCTION        0.60          0.292        1.998
  WS02006230           JUNCTION        1.41          0.909        0.661
  WS02006231           JUNCTION        1.53          0.914        0.616
  WS02006232           JUNCTION        3.27          1.014        0.466
  WS02006234           JUNCTION        2.36          0.876        0.364
  WS02006235           JUNCTION        2.78          0.895        0.395
  WS02006238           JUNCTION        2.92          0.895        0.535
  WS02006240           JUNCTION        1.76          0.733        0.657
  WS02006242           JUNCTION        2.02          0.729        0.091
  WS02006243           JUNCTION        0.97          0.590        0.180
  WS02006245           JUNCTION        0.81          0.515        0.335
  WS02006247           JUNCTION        0.79          0.494        0.266
  WS02006248           JUNCTION        0.61          0.380        0.000
  WS02006249           JUNCTION        0.63          0.390        0.000
  WS02006239           JUNCTION        2.31          0.799        0.491
  WS02006251           JUNCTION        0.12          0.195        0.985
  WS02006252           JUNCTION        0.38          0.258        0.842
  WS02006253           JUNCTION        0.34          0.294        2.186
  WS02006256           JUNCTION        6.97          2.050        0.000
  WS02006228           JUNCTION        3.16          1.111        1.089
  HS02004817           JUNCTION        0.14          0.011        1.729
  YS02001748           JUNCTION        6.04          0.336        0.854
  YS02001751           JUNCTION        6.09          0.612        0.588
  YS02001754           JUNCTION        6.14          0.816        0.334
  YS02001762           JUNCTION        6.19          1.062        0.088
  YS02001765           JUNCTION        6.18          1.011        0.089
  YS02001767           JUNCTION        6.18          0.965        0.065
  YS02001770           JUNCTION        6.18          0.916        0.004
  YS02001774           JUNCTION        6.19          0.995        0.055
  YS02001779           JUNCTION        6.12          0.680        0.000
  YS02001882           JUNCTION        1.80          0.830        0.000
  YS02001884           JUNCTION        1.82          0.870        0.000
  YS02001759           JUNCTION        6.20          1.106        0.104
  YS02001887           JUNCTION        1.88          0.889        0.061
  YS02001890           JUNCTION        1.89          0.760        0.000
  YS02001898           JUNCTION        1.78          0.537        0.203
  YS02001901           JUNCTION        1.85          0.678        0.192
  YS02001904           JUNCTION        1.83          0.639        0.211
  YS02001907           JUNCTION        2.40          0.950        0.000
  YS02001910           JUNCTION        1.93          0.852        0.248
  YS02001915           JUNCTION        1.80          0.708        0.292
  YS02001918           JUNCTION        1.65          0.491        0.319
  YS02001619           JUNCTION        6.09          0.577        0.033
  YS02001629           JUNCTION        6.08          0.470        0.000
  YS02001641           JUNCTION        6.18          0.935        0.165
  YS02001644           JUNCTION        6.18          0.920        0.000
  YS02001652           JUNCTION        6.15          0.896        0.234
  YS02001655           JUNCTION        6.10          0.755        0.445
  YS02001920           JUNCTION        1.68          0.630        0.510
  YS02001923           JUNCTION        0.01          0.213        0.607
  YS02001926           JUNCTION        0.01          0.365        0.535
  YS02001658           JUNCTION        6.05          0.564        0.736
  YS02001661           JUNCTION        0.18          0.335        1.055
  YS02001622           JUNCTION        6.10          0.572        0.048
  YS02001633           JUNCTION        6.17          0.926        0.134
  YS02001649           JUNCTION        6.19          1.050        0.000
  YS02001757           JUNCTION        6.23          1.206        0.004
  YS02001895           JUNCTION        1.78          0.567        0.183
  YS02001625           JUNCTION        6.15          0.780        0.000
  YS02163301           JUNCTION        6.17          0.886        0.144
  YS02163601           JUNCTION        6.20          0.990        0.090
  YS02164001           JUNCTION        6.17          0.917        0.183
  YS02001647           JUNCTION        6.15          0.795        0.105
  YS02006553           JUNCTION        2.47          0.970        0.220
  YS02006561           JUNCTION        1.69          0.582        0.568
  YS02006556           JUNCTION        2.11          0.896        0.454
  YS02006558           JUNCTION        2.07          0.883        0.517
  YS02001783           JUNCTION        1.93          0.904        0.696
  YS02001784           JUNCTION        1.91          0.762        0.728
  YS02001786           JUNCTION        1.86          0.565        0.865
  YS02001788           JUNCTION        1.80          0.577        0.903
  YS02001790           JUNCTION        2.67          0.954        0.203
  YS02001791           JUNCTION        2.77          0.909        1.011
  YS02001793           JUNCTION        3.02          1.302        1.298
  
  
  *********************
  Node Flooding Summary
  *********************
  
  Flooding refers to all water that overflows a node, whether it ponds or not.
  --------------------------------------------------------------------------
                                                             Total   Maximum
                                 Maximum   Time of Max       Flood    Ponded
                        Hours       Rate    Occurrence      Volume     Depth
  Node                 Flooded       LPS   days hr:min    10^6 ltr    Meters
  --------------------------------------------------------------------------
  WS02006248              0.22     65.57      0  01:54       0.022     0.000
  WS02006249              0.33    117.29      0  01:51       0.076     0.000
  WS02006256              4.39    828.78      0  02:00       7.934     0.000
  YS02001779              3.91    788.68      0  02:40       4.325     0.000
  YS02001882              0.01      8.05      0  01:48       0.000     0.000
  YS02001884              0.01      6.97      0  01:48       0.000     0.000
  YS02001890              0.82    161.39      0  02:12       0.274     0.000
  YS02001907              1.53    715.62      0  02:16       2.679     0.000
  YS02001629              0.01     28.48      0  01:46       0.000     0.000
  YS02001644              5.90   1620.45      0  02:31      13.897     0.000
  YS02001649              0.32    170.29      0  02:39       0.116     0.000
  YS02001625              2.14    435.64      0  02:16       1.967     0.000
  JK-storage              0.84    575.22      0  01:49       0.838     0.000
  XR-storage              4.73    674.57      0  03:01       5.212     0.000
  
  
  **********************
  Storage Volume Summary
  **********************
  
  --------------------------------------------------------------------------------------------------
                         Average     Avg  Evap Exfil       Maximum     Max    Time of Max    Maximum
                          Volume    Pcnt  Pcnt  Pcnt        Volume    Pcnt     Occurrence    Outflow
  Storage Unit           1000 m3    Full  Loss  Loss       1000 m3    Full    days hr:min        LPS
  --------------------------------------------------------------------------------------------------
  JK-storage               0.158      54     0     0         0.291     100       0  01:44     983.00
  CC-storage               3.436      22     0     0         4.087      26       0  02:35     219.34
  XR-storage               0.858      93     0     0         0.926     100       0  02:04     380.00
  
  
  ***********************
  Outfall Loading Summary
  ***********************
  
  ---------------------------------------------------------------------------------------------------------------------------------
                         Flow       Avg       Max       Total         Total         Total         Total         Total         Total
                         Freq      Flow      Flow      Volume           COD            SS            TN            TP         NH4-N
  Outfall Node           Pcnt       LPS       LPS    10^6 ltr            kg            kg            kg            kg            kg
  ---------------------------------------------------------------------------------------------------------------------------------
  WSC                   99.98    757.05   1347.52      19.955      2468.415      4396.444       139.311        16.026        83.254
  ---------------------------------------------------------------------------------------------------------------------------------
  System                99.98    757.05   1347.52      19.955      2468.415      4396.444       139.311        16.026        83.254
  
  
  ********************
  Link Flow Summary
  ********************
  
  -----------------------------------------------------------------------------
                                 Maximum  Time of Max   Maximum    Max/    Max/
                                  |Flow|   Occurrence   |Veloc|    Full    Full
  Link                 Type          LPS  days hr:min     m/sec    Flow   Depth
  -----------------------------------------------------------------------------
  WS02003066WSF200     CONDUIT    958.27     0  01:56      3.01    0.16    0.33
  WS02006287WS02006284 CONDUIT    735.74     0  01:54      2.45    0.34    0.41
  WS02006284WS02006280 CONDUIT    736.09     0  01:54      2.68    0.31    0.38
  WS02006280WS02006229 CONDUIT    740.92     0  01:52      4.20    0.16    0.58
  WS02006229WS02006228 CONDUIT    938.16     0  01:53      1.87    3.11    1.00
  WS02006256WS02006235 CONDUIT    288.92     0  00:00      4.23    3.06    1.00
  WS02006253WS02006251 CONDUIT    169.88     0  01:51      0.74    0.51    1.00
  WS02006252WS02006251 CONDUIT    200.34     0  05:50      1.97    0.74    1.00
  WS02006251WS02006249 CONDUIT    209.74     0  02:52      0.92    0.60    1.00
  WS02006249WS02006248 CONDUIT    209.69     0  02:52      1.01    1.15    1.00
  WS02006248WS02006247 CONDUIT    209.55     0  02:52      0.98    0.46    1.00
  WS02006247WS02006245 CONDUIT    209.54     0  02:52      0.95    1.66    1.00
  WS02006245WS02006243 CONDUIT    209.53     0  02:52      1.05    0.62    1.00
  WS02006243WS02006242 CONDUIT    209.51     0  02:52      0.90    0.45    1.00
  WS02006242WS02006240 CONDUIT    209.50     0  02:52      0.91    0.83    1.00
  WS02006240WS02006239 CONDUIT    209.50     0  02:52      0.92    0.66    1.00
  WS02006239WS02006238 CONDUIT    209.54     0  02:52      0.87    0.67    1.00
  WS02006238WS02006235 CONDUIT    209.67     0  02:52      1.45    0.47    1.00
  WS02006235WS02006234 CONDUIT    421.95     0  05:11      1.10    4.45    1.00
  WS02006234WS02006232 CONDUIT    421.95     0  05:11      1.39    0.85    1.00
  WS02006232WS02006231 CONDUIT    421.95     0  05:11      1.12    0.88    1.00
  WS02006231WS02006230 CONDUIT    421.80     0  05:11      1.35    6.40    1.00
  WS02006230WS02006229 CONDUIT    432.18     0  03:42      1.12    9.62    1.00
  WS02006228WS02006109 CONDUIT    938.32     0  01:53      1.87    4.10    1.00
  WS02006116WS02004401 CONDUIT    971.09     0  01:53      1.24    1.34    1.00
  WS02006115WS02006116 CONDUIT    970.68     0  01:53      1.24    1.25    1.00
  WS02006113WS02006111 CONDUIT    938.90     0  01:53      2.64    1.13    1.00
  WS02006112WS02006115 CONDUIT    969.71     0  01:53      1.23    0.57    1.00
  WS02006111WS02006112 CONDUIT    939.31     0  01:53      1.87    0.45    1.00
  WS02006110WS02006113 CONDUIT    939.32     0  01:53      1.87    0.85    1.00
  WS02006109WS02006110 CONDUIT    939.27     0  01:53      1.87    1.81    1.00
  WS02004411WS02004412 CONDUIT    957.75     0  01:55      1.26    1.36    0.93
  WS02004401WS02004402 CONDUIT    970.70     0  01:53      1.24    1.17    1.00
  WS02004413WS02003067 CONDUIT    957.84     0  01:55      1.58    0.41    0.72
  WS02004412WS02004413 CONDUIT    957.90     0  01:55      1.24    0.64    0.96
  WS02004410WS02004411 CONDUIT    956.21     0  01:55      1.24    1.31    0.95
  WS02004409WS02004410 CONDUIT    959.05     0  01:54      1.24    1.24    0.97
  WS02004407WS02004409 CONDUIT    971.35     0  01:53      1.74    0.34    0.69
  WS02004406WS02004407 CONDUIT    973.72     0  01:53      1.65    0.44    0.70
  WS02004405WS02004406 CONDUIT    973.25     0  01:53      1.24    1.92    1.00
  WS02004404WS02004405 CONDUIT    973.78     0  01:53      1.24    9.54    1.00
  WS02004403WS02004404 CONDUIT    972.07     0  01:53      1.24    0.70    1.00
  WS02004402WS02004403 CONDUIT    971.63     0  01:53      1.24    1.40    1.00
  WS02004139WS02001211 CONDUIT    382.92     0  02:28      0.90    0.48    0.64
  WS02004138WS02004139 CONDUIT    395.52     0  00:00      3.64    0.08    0.47
  WS02003067WS02003066 CONDUIT    958.20     0  01:55      1.67    0.31    0.51
  WS02001213WS02003059 CONDUIT    398.65     0  02:27      0.89    0.66    0.88
  WS02001212WS02001213 CONDUIT    395.51     0  02:27      1.32    0.61    0.56
  WS02001211WS02001212 CONDUIT    392.97     0  02:28      0.78    0.30    0.72
  WS02003072WS02003073 CONDUIT   1345.05     0  02:01      1.97    2.91    0.58
  WS02003069WS02003072 CONDUIT   1344.65     0  02:01      1.82    0.65    0.62
  WS02003060WS02003069 CONDUIT   1344.30     0  02:00      2.03    0.53    0.57
  WS02003059WS02003060 CONDUIT    402.24     0  02:26      0.95    0.26    0.78
  HS02004901HS02004770 CONDUIT     36.84     0  01:52      0.10    0.14    0.54
  HS02004876HS02004881 CONDUIT    139.08     0  01:54      1.26    1.48    0.16
  HS02004870HS02004876 CONDUIT    112.62     0  01:54      0.85    0.07    0.19
  HS02004842HS02004848 CONDUIT     18.18     0  02:06      0.08    0.01    0.34
  HS02004837HS02004842 CONDUIT     18.64     0  02:07      0.42    0.01    0.35
  HS02004830HS02004837 CONDUIT     67.83     0  01:54      0.68    0.07    0.14
  HS02004824HS02004830 CONDUIT     68.03     0  01:56      0.62    0.09    0.18
  HS02004817HS02004824 CONDUIT    136.27     0  01:57      0.32    0.06    0.60
  HS02004770HS02004777 CONDUIT    189.68     0  01:52      0.49    0.35    0.55
  HS02004799HS02004480 CONDUIT    470.64     0  01:53      1.09    0.59    0.62
  HS02004792HS02004799 CONDUIT    430.88     0  01:53      1.22    0.26    0.50
  HS02004788HS02004792 CONDUIT    248.73     0  01:54      1.29    0.16    0.28
  HS02004785HS02004788 CONDUIT    189.53     0  01:53      0.92    1.43    0.30
  HS02004777HS02004785 CONDUIT    189.41     0  01:53      0.59    0.23    0.46
  HS02004480HS02004478 CONDUIT    554.37     0  01:53      1.59    2.33    0.50
  HS02004479HS02004480 CONDUIT     83.71     0  01:53      0.37    0.08    0.59
  HS02004862HS02004870 CONDUIT     86.18     0  01:55      0.82    0.09    0.15
  HS02004848HS02004852 CONDUIT     40.37     0  01:54      0.54    0.05    0.11
  HS02004856HS02004862 CONDUIT     60.18     0  01:54      0.61    0.06    0.14
  HS02004852HS02004856 CONDUIT     40.43     0  01:55      0.35    0.05    0.17
  HS02004802HS02004478 CONDUIT    184.71     0  01:57      0.53    0.16    0.50
  HS02004478WS02006287 CONDUIT    735.65     0  01:54      2.18    0.21    0.38
  HS02004817HS02004807 CONDUIT    137.06     0  01:57      0.26    0.08    0.77
  HS02004807HS02004802 CONDUIT    183.95     0  01:56      0.47    0.35    0.56
  YS02001759YS02001757 CONDUIT    876.24     0  01:57      1.12    0.62    1.00
  YS02001762YS02001759 CONDUIT    433.48     0  01:55      0.55    0.50    1.00
  YS02001765YS02001762 CONDUIT    434.49     0  01:55      0.55    0.41    1.00
  YS02001770YS02001767 CONDUIT    434.39     0  01:55      0.55    1.72    1.00
  YS02001774YS02001770 CONDUIT    788.59     0  02:40      1.00    0.50    1.00
  YS02001779YS02001774 CONDUIT    788.69     0  02:40      1.00    0.40    1.00
  YS02001649YS02001757 CONDUIT   1005.01     0  01:49      1.28    0.61    1.00
  YS02001767YS02001765 CONDUIT    435.58     0  01:55      0.55    0.55    1.00
  YS02006561YS02001783 CONDUIT    982.96     0  02:09      2.14    0.51    1.00
  YS02001783YS02001784 CONDUIT    983.94     0  02:10      1.96    1.36    1.00
  YS02001784YS02001785 CONDUIT    984.08     0  02:11      1.96    2.29    1.00
  YS02001788YS02001790 CONDUIT    984.01     0  02:15      2.44    0.73    1.00
  YS02001790YS02001791 CONDUIT    983.77     0  02:11      2.91    1.07    1.00
  YS02001791YS02001793 CONDUIT    985.59     0  02:09      5.76    0.42    1.00
  YS02001910YS02001907 CONDUIT    651.42     0  01:52      0.83    0.37    1.00
  YS02001786YS02001788 CONDUIT    983.72     0  02:14      2.31    1.90    1.00
  YS02001915YS02001910 CONDUIT    650.94     0  01:52      0.83    0.32    1.00
  YS02001918YS02001915 CONDUIT    370.69     0  01:52      0.49    0.20    1.00
  YS02001923YS02001920 CONDUIT    364.74     0  01:52      0.82    0.16    1.00
  YS02001926YS02001923 CONDUIT    315.57     0  01:51      0.92    0.45    1.00
  YS02001929YS02001926 CONDUIT    248.72     0  01:52      0.98    0.12    0.99
  YS02001920YS02001918 CONDUIT    368.45     0  01:52      0.77    0.36    1.00
  YS02001629YS02163301 CONDUIT    226.39     0  01:45      0.29    0.28    1.00
  YS02001619YS02001622 CONDUIT    389.12     0  02:16      0.74    0.57    1.00
  YS02001622YS02001625 CONDUIT    388.71     0  02:16      0.49    0.21    1.00
  YS02001625YS02001629 CONDUIT    217.69     0  01:48      0.29    0.10    1.00
  YS02163301YS02001633 CONDUIT    227.95     0  01:45      0.29    0.21    1.00
  YS02163601YS02164001 CONDUIT    455.15     0  01:48      0.58    0.40    1.00
  YS02164001YS02001641 CONDUIT    455.66     0  01:48      0.58    0.62    1.00
  YS02001641YS02001644 CONDUIT    455.59     0  01:48      0.58    1.47    1.00
  YS02001647YS02001649 CONDUIT    846.70     0  02:48      1.08    0.45    1.00
  YS02006553YS02006556 CONDUIT    717.93     0  03:35      0.91    0.61    1.00
  YS02006556YS02006558 CONDUIT    718.11     0  03:35      0.91    0.57    1.00
  YSB6556YSB1171       CONDUIT     46.62     0  01:54      0.14    0.05    0.84
  YS02001907YS02006553 CONDUIT    717.83     0  03:35      0.80    0.84    1.00
  YS02006558YS02006561 CONDUIT    982.85     0  02:12      3.48    2.17    1.00
  YS02001633YS02163601 CONDUIT    455.23     0  01:48      0.58    0.48    1.00
  YS02001644YS02001647 CONDUIT    846.70     0  02:48      1.08    0.50    1.00
  YS02001745YS02001748 CONDUIT    449.11     0  02:16      1.67    0.17    0.99
  YS02001748YS02001751 CONDUIT    450.31     0  02:16      1.21    0.23    1.00
  YS02001751YS02001754 CONDUIT    449.66     0  02:16      1.02    0.22    1.00
  YS02001754YS02001757 CONDUIT    449.86     0  02:16      0.57    0.18    1.00
  YS02001882YS02001884 CONDUIT     63.81     0  01:48      0.16    0.07    1.00
  YS02001884YS02001887 CONDUIT     72.35     0  01:47      0.12    0.10    1.00
  YS02001890YS02001895 CONDUIT    523.89     0  01:51      0.67    0.24    1.00
  YS02001895YS02001898 CONDUIT    525.06     0  01:51      0.67    0.91    1.00
  YS02001898YS02001901 CONDUIT    525.50     0  01:51      0.67    0.34    1.00
  YS02001901YS02001904 CONDUIT    526.86     0  01:51      0.67    0.82    1.00
  YS02001904YS02001907 CONDUIT    526.11     0  01:51      0.67    0.18    1.00
  YS02001887YS02001890 CONDUIT    677.67     0  02:13      0.86    1.16    1.00
  YS02001652YS02001649 CONDUIT    516.85     0  02:10      0.71    0.26    1.00
  YS02001655YS02001652 CONDUIT    514.90     0  02:10      1.09    0.25    1.00
  YS02001658YS02001655 CONDUIT    513.47     0  02:12      1.41    0.22    1.00
  YS02001661YS02001658 CONDUIT    516.27     0  02:10      1.78    0.20    1.00
  YS02001664YS02001661 CONDUIT    750.29     0  01:56      1.69    0.24    0.77
  YSB1154YSB6556       CONDUIT     46.64     0  01:52      0.16    0.08    0.75
  YSB1174YSB1171       CONDUIT     38.37     0  01:50      0.11    0.06    0.87
  YSB1171HS02004479    CONDUIT     83.75     0  01:53      0.54    0.06    0.70
  HS02004881HS02006253 CONDUIT    153.29     0  01:54      2.70    0.03    0.54
  YS02001793JiankangQianchi CONDUIT    984.44     0  02:11     16.97    0.08    1.00
  YS02001757CaochengTiaoxuchi CONDUIT   2147.02     0  01:55      3.55    0.94    1.00
  WSF200WS02003060     CONDUIT    958.80     0  01:55      1.98    0.21    0.45
  1                    CONDUIT   1347.52     0  02:02      3.60    0.47    0.48
  CC-Pump-1            PUMP       200.00     0  03:30              1.00
  CC-Pump-2            PUMP         0.00     0  00:00              0.00
  JK-Pump-1            PUMP       300.00     0  00:00              1.00
  JK-Pump-2            PUMP       683.00     0  02:00              1.00
  XR-Pump-1            PUMP        95.00     0  00:00              1.00
  XR-Pump-2            PUMP        95.00     0  00:00              1.00
  XR-Pump-3            PUMP        95.00     0  00:00              1.00
  XR-Pump-4            PUMP        95.00     0  00:00              1.00
  
  
  ***************************
  Flow Classification Summary
  ***************************
  
  -------------------------------------------------------------------------------------
                      Adjusted    ---------- Fraction of Time in Flow Class ---------- 
                       /Actual         Up    Down  Sub   Sup   Up    Down  Norm  Inlet 
  Conduit               Length    Dry  Dry   Dry   Crit  Crit  Crit  Crit  Ltd   Ctrl  
  -------------------------------------------------------------------------------------
  WS02003066WSF200        1.00   0.01  0.02  0.00  0.00  0.97  0.00  0.00  0.66  0.00
  WS02006287WS02006284    1.00   0.03  0.01  0.00  0.61  0.35  0.00  0.00  0.63  0.00
  WS02006284WS02006280    1.00   0.04  0.00  0.00  0.00  0.00  0.00  0.96  0.00  0.00
  WS02006280WS02006229    1.00   0.04  0.00  0.00  0.02  0.02  0.00  0.92  0.01  0.00
  WS02006229WS02006228    1.00   0.00  0.00  0.00  1.00  0.00  0.00  0.00  0.00  0.00
  WS02006256WS02006235    1.00   0.00  0.00  0.00  1.00  0.00  0.00  0.00  0.00  0.00
  WS02006253WS02006251    1.00   0.02  0.01  0.00  0.96  0.00  0.01  0.00  0.00  0.00
  WS02006252WS02006251    1.00   0.09  0.00  0.00  0.04  0.00  0.87  0.00  0.00  0.00
  WS02006251WS02006249    1.00   0.00  0.00  0.00  1.00  0.00  0.00  0.00  0.23  0.00
  WS02006249WS02006248    1.00   0.00  0.01  0.00  0.91  0.00  0.08  0.00  0.00  0.00
  WS02006248WS02006247    1.00   0.01  0.00  0.00  0.99  0.00  0.00  0.00  0.12  0.00
  WS02006247WS02006245    1.00   0.00  0.00  0.00  0.99  0.00  0.00  0.01  0.00  0.00
  WS02006245WS02006243    1.00   0.00  0.00  0.00  0.94  0.00  0.00  0.05  0.00  0.00
  WS02006243WS02006242    1.00   0.00  0.00  0.00  1.00  0.00  0.00  0.00  0.23  0.00
  WS02006242WS02006240    1.00   0.00  0.00  0.00  1.00  0.00  0.00  0.00  0.00  0.00
  WS02006240WS02006239    1.00   0.00  0.00  0.00  0.96  0.00  0.00  0.04  0.01  0.00
  WS02006239WS02006238    1.00   0.00  0.00  0.00  1.00  0.00  0.00  0.00  0.10  0.00
  WS02006238WS02006235    1.00   0.00  0.00  0.00  1.00  0.00  0.00  0.00  0.00  0.00
  WS02006235WS02006234    1.00   0.00  0.00  0.00  0.97  0.00  0.03  0.00  0.00  0.00
  WS02006234WS02006232    1.00   0.00  0.00  0.00  1.00  0.00  0.00  0.00  0.06  0.00
  WS02006232WS02006231    1.00   0.00  0.00  0.00  1.00  0.00  0.00  0.00  0.00  0.00
  WS02006231WS02006230    1.00   0.00  0.00  0.00  0.63  0.00  0.37  0.00  0.00  0.00
  WS02006230WS02006229    1.00   0.00  0.00  0.00  1.00  0.00  0.00  0.00  0.00  0.00
  WS02006228WS02006109    1.00   0.00  0.00  0.00  1.00  0.00  0.00  0.00  0.00  0.00
  WS02006116WS02004401    1.00   0.01  0.00  0.00  0.99  0.00  0.00  0.00  0.00  0.00
  WS02006115WS02006116    1.00   0.01  0.00  0.00  0.99  0.00  0.00  0.00  0.00  0.00
  WS02006113WS02006111    1.00   0.01  0.00  0.00  0.05  0.95  0.00  0.00  0.15  0.00
  WS02006112WS02006115    1.00   0.01  0.00  0.00  0.99  0.00  0.00  0.00  0.00  0.00
  WS02006111WS02006112    1.00   0.01  0.00  0.00  0.99  0.00  0.00  0.00  0.83  0.00
  WS02006110WS02006113    1.00   0.00  0.00  0.00  0.99  0.00  0.00  0.00  0.00  0.00
  WS02006109WS02006110    1.00   0.00  0.00  0.00  0.99  0.00  0.00  0.00  0.00  0.00
  WS02004411WS02004412    1.00   0.02  0.00  0.00  0.98  0.00  0.00  0.00  0.00  0.00
  WS02004401WS02004402    1.00   0.01  0.00  0.00  0.99  0.00  0.00  0.00  0.00  0.00
  WS02004413WS02003067    1.00   0.02  0.01  0.00  0.00  0.00  0.98  0.00  0.00  0.00
  WS02004412WS02004413    1.00   0.02  0.00  0.00  0.98  0.00  0.00  0.00  0.01  0.00
  WS02004410WS02004411    1.00   0.02  0.00  0.00  0.98  0.00  0.00  0.00  0.00  0.00
  WS02004409WS02004410    1.00   0.02  0.00  0.00  0.98  0.00  0.00  0.00  0.02  0.00
  WS02004407WS02004409    1.00   0.02  0.00  0.00  0.98  0.00  0.00  0.00  0.95  0.00
  WS02004406WS02004407    1.00   0.00  0.01  0.00  0.99  0.00  0.00  0.00  0.00  0.00
  WS02004405WS02004406    1.00   0.00  0.00  0.00  1.00  0.00  0.00  0.00  0.00  0.00
  WS02004404WS02004405    1.00   0.00  0.00  0.00  1.00  0.00  0.00  0.00  0.00  0.00
  WS02004403WS02004404    1.00   0.00  0.01  0.00  0.99  0.00  0.00  0.00  0.00  0.00
  WS02004402WS02004403    1.00   0.01  0.00  0.00  0.99  0.00  0.00  0.00  0.00  0.00
  WS02004139WS02001211    1.00   0.00  0.00  0.00  1.00  0.00  0.00  0.00  0.00  0.00
  WS02004138WS02004139    1.00   0.00  0.00  0.00  1.00  0.00  0.00  0.00  1.00  0.00
  WS02003067WS02003066    1.00   0.02  0.00  0.00  0.97  0.00  0.00  0.00  0.00  0.00
  WS02001213WS02003059    1.00   0.00  0.00  0.00  1.00  0.00  0.00  0.00  0.00  0.00
  WS02001212WS02001213    1.00   0.00  0.00  0.00  0.93  0.00  0.07  0.00  0.00  0.00
  WS02001211WS02001212    1.00   0.00  0.00  0.00  1.00  0.00  0.00  0.00  0.00  0.00
  WS02003072WS02003073    1.00   0.00  0.00  0.00  0.00  0.00  0.00  1.00  0.00  0.00
  WS02003069WS02003072    1.00   0.00  0.00  0.00  1.00  0.00  0.00  0.00  0.10  0.00
  WS02003060WS02003069    1.00   0.00  0.00  0.00  0.99  0.01  0.00  0.00  0.07  0.00
  WS02003059WS02003060    1.00   0.00  0.00  0.00  1.00  0.00  0.00  0.00  0.01  0.00
  HS02004901HS02004770    1.00   0.03  0.00  0.00  0.97  0.00  0.00  0.00  0.00  0.00
  HS02004876HS02004881    1.00   0.01  0.00  0.00  0.90  0.09  0.00  0.00  0.00  0.00
  HS02004870HS02004876    1.00   0.00  0.00  0.00  0.99  0.00  0.00  0.00  0.95  0.00
  HS02004842HS02004848    1.00   0.00  0.03  0.00  0.96  0.00  0.00  0.00  0.56  0.00
  HS02004837HS02004842    1.00   0.00  0.00  0.00  1.00  0.00  0.00  0.00  0.11  0.00
  HS02004830HS02004837    1.00   0.00  0.00  0.00  1.00  0.00  0.00  0.00  0.99  0.00
  HS02004824HS02004830    1.00   0.00  0.00  0.00  1.00  0.00  0.00  0.00  0.03  0.00
  HS02004817HS02004824    1.00   0.00  0.00  0.00  1.00  0.00  0.00  0.00  0.92  0.00
  HS02004770HS02004777    1.00   0.00  0.03  0.00  0.97  0.00  0.00  0.00  0.02  0.00
  HS02004799HS02004480    1.00   0.00  0.01  0.00  0.96  0.00  0.03  0.00  0.00  0.00
  HS02004792HS02004799    1.00   0.00  0.00  0.00  1.00  0.00  0.00  0.00  0.98  0.00
  HS02004788HS02004792    1.00   0.00  0.00  0.00  1.00  0.00  0.00  0.00  0.98  0.00
  HS02004785HS02004788    1.00   0.00  0.00  0.00  1.00  0.00  0.00  0.00  0.00  0.00
  HS02004777HS02004785    1.00   0.00  0.00  0.00  1.00  0.00  0.00  0.00  0.11  0.00
  HS02004480HS02004478    1.00   0.04  0.00  0.00  0.67  0.00  0.00  0.29  0.00  0.00
  HS02004479HS02004480    1.00   0.01  0.00  0.00  0.99  0.00  0.00  0.00  0.11  0.00
  HS02004862HS02004870    1.00   0.00  0.00  0.00  1.00  0.00  0.00  0.00  0.03  0.00
  HS02004848HS02004852    1.00   0.04  0.00  0.00  0.96  0.00  0.00  0.00  0.79  0.00
  HS02004856HS02004862    1.00   0.00  0.04  0.00  0.96  0.00  0.00  0.00  0.84  0.00
  HS02004852HS02004856    1.00   0.03  0.00  0.00  0.96  0.00  0.00  0.00  0.77  0.00
  HS02004802HS02004478    1.00   0.04  0.00  0.00  0.96  0.00  0.00  0.00  0.02  0.00
  HS02004478WS02006287    1.00   0.04  0.00  0.00  0.73  0.23  0.00  0.00  0.62  0.00
  HS02004817HS02004807    1.00   0.00  0.03  0.00  0.97  0.00  0.00  0.00  0.01  0.00
  HS02004807HS02004802    1.00   0.03  0.00  0.00  0.96  0.00  0.00  0.00  0.00  0.00
  YS02001759YS02001757    1.00   0.00  0.00  0.00  1.00  0.00  0.00  0.00  0.15  0.00
  YS02001762YS02001759    1.00   0.00  0.00  0.00  1.00  0.00  0.00  0.00  0.02  0.00
  YS02001765YS02001762    1.00   0.00  0.00  0.00  1.00  0.00  0.00  0.00  0.13  0.00
  YS02001770YS02001767    1.00   0.00  0.00  0.00  1.00  0.00  0.00  0.00  0.00  0.00
  YS02001774YS02001770    1.00   0.00  0.04  0.00  0.96  0.00  0.00  0.00  0.02  0.00
  YS02001779YS02001774    1.00   0.00  0.00  0.00  1.00  0.00  0.00  0.00  0.17  0.00
  YS02001649YS02001757    1.00   0.00  0.00  0.00  1.00  0.00  0.00  0.00  0.15  0.00
  YS02001767YS02001765    1.00   0.00  0.00  0.00  1.00  0.00  0.00  0.00  0.00  0.00
  YS02006561YS02001783    1.00   0.05  0.00  0.00  0.41  0.54  0.00  0.00  0.45  0.00
  YS02001783YS02001784    1.00   0.00  0.05  0.00  0.95  0.00  0.00  0.00  0.00  0.00
  YS02001784YS02001785    1.00   0.00  0.00  0.00  1.00  0.00  0.00  0.00  0.16  0.00
  YS02001788YS02001790    1.00   0.00  0.00  0.00  0.46  0.54  0.00  0.00  0.35  0.00
  YS02001790YS02001791    1.00   0.00  0.00  0.00  0.43  0.57  0.00  0.00  0.40  0.00
  YS02001791YS02001793    1.00   0.00  0.00  0.00  0.46  0.54  0.00  0.00  0.02  0.00
  YS02001910YS02001907    1.00   0.00  0.00  0.00  0.99  0.00  0.00  0.01  0.12  0.00
  YS02001786YS02001788    1.00   0.00  0.00  0.00  0.44  0.56  0.00  0.00  0.00  0.00
  YS02001915YS02001910    1.00   0.00  0.00  0.00  0.99  0.01  0.00  0.00  0.13  0.00
  YS02001918YS02001915    1.00   0.00  0.00  0.00  0.99  0.01  0.00  0.00  0.50  0.00
  YS02001923YS02001920    1.00   0.00  0.00  0.00  1.00  0.00  0.00  0.00  0.74  0.00
  YS02001926YS02001923    1.00   0.00  0.02  0.00  0.25  0.00  0.73  0.00  0.00  0.00
  YS02001929YS02001926    1.00   0.00  0.03  0.00  0.97  0.00  0.00  0.00  0.65  0.00
  YS02001920YS02001918    1.00   0.00  0.00  0.00  1.00  0.00  0.00  0.00  0.00  0.00
  YS02001629YS02163301    1.00   0.04  0.00  0.00  0.96  0.00  0.00  0.00  0.00  0.00
  YS02001619YS02001622    1.00   0.03  0.00  0.00  0.97  0.00  0.00  0.00  0.00  0.00
  YS02001622YS02001625    1.00   0.04  0.00  0.00  0.96  0.00  0.00  0.00  0.03  0.00
  YS02001625YS02001629    1.00   0.04  0.01  0.00  0.94  0.00  0.01  0.00  0.00  0.00
  YS02163301YS02001633    1.00   0.00  0.04  0.00  0.96  0.00  0.00  0.00  0.00  0.00
  YS02163601YS02164001    1.00   0.00  0.02  0.00  0.98  0.00  0.00  0.00  0.00  0.00
  YS02164001YS02001641    1.00   0.00  0.02  0.00  0.98  0.00  0.00  0.00  0.06  0.00
  YS02001641YS02001644    1.00   0.00  0.00  0.00  1.00  0.00  0.00  0.00  0.00  0.00
  YS02001647YS02001649    1.00   0.00  0.04  0.00  0.96  0.00  0.00  0.00  0.01  0.00
  YS02006553YS02006556    1.00   0.01  0.00  0.00  0.99  0.00  0.00  0.00  0.03  0.00
  YS02006556YS02006558    1.00   0.00  0.00  0.00  1.00  0.00  0.00  0.00  0.00  0.00
  YSB6556YSB1171          1.00   0.01  0.02  0.00  0.97  0.00  0.00  0.00  0.00  0.00
  YS02001907YS02006553    1.00   0.00  0.01  0.00  0.99  0.00  0.00  0.00  0.00  0.00
  YS02006558YS02006561    1.00   0.04  0.00  0.00  0.25  0.70  0.00  0.00  0.44  0.00
  YS02001633YS02163601    1.00   0.00  0.00  0.00  1.00  0.00  0.00  0.00  0.15  0.00
  YS02001644YS02001647    1.00   0.00  0.04  0.00  0.96  0.00  0.00  0.00  0.00  0.00
  YS02001745YS02001748    1.00   0.00  0.00  0.00  0.93  0.00  0.00  0.07  0.01  0.00
  YS02001748YS02001751    1.00   0.00  0.00  0.00  0.98  0.02  0.00  0.00  0.14  0.00
  YS02001751YS02001754    1.00   0.00  0.00  0.00  0.95  0.00  0.00  0.05  0.01  0.00
  YS02001754YS02001757    1.00   0.00  0.00  0.00  1.00  0.00  0.00  0.00  0.17  0.00
  YS02001882YS02001884    1.00   0.04  0.00  0.00  0.96  0.00  0.00  0.00  0.00  0.00
  YS02001884YS02001887    1.00   0.02  0.01  0.00  0.97  0.00  0.00  0.00  0.00  0.00
  YS02001890YS02001895    1.00   0.00  0.04  0.00  0.96  0.00  0.00  0.00  0.00  0.00
  YS02001895YS02001898    1.00   0.04  0.00  0.00  0.95  0.00  0.01  0.00  0.00  0.00
  YS02001898YS02001901    1.00   0.04  0.00  0.00  0.96  0.00  0.00  0.00  0.01  0.00
  YS02001901YS02001904    1.00   0.04  0.00  0.00  0.96  0.00  0.00  0.00  0.00  0.00
  YS02001904YS02001907    1.00   0.00  0.04  0.00  0.96  0.00  0.00  0.00  0.00  0.00
  YS02001887YS02001890    1.00   0.00  0.00  0.00  0.99  0.00  0.01  0.00  0.00  0.00
  YS02001652YS02001649    1.00   0.00  0.00  0.00  1.00  0.00  0.00  0.00  0.15  0.00
  YS02001655YS02001652    1.00   0.00  0.00  0.00  0.95  0.00  0.00  0.05  0.01  0.00
  YS02001658YS02001655    1.00   0.00  0.04  0.00  0.94  0.02  0.00  0.00  0.02  0.00
  YS02001661YS02001658    1.00   0.04  0.00  0.00  0.93  0.03  0.00  0.00  0.01  0.00
  YS02001664YS02001661    1.00   0.03  0.00  0.00  0.94  0.03  0.00  0.00  0.10  0.00
  YSB1154YSB6556          1.00   0.03  0.00  0.00  0.97  0.00  0.00  0.00  0.01  0.00
  YSB1174YSB1171          1.00   0.02  0.01  0.00  0.97  0.00  0.00  0.00  0.00  0.00
  YSB1171HS02004479       1.00   0.01  0.00  0.00  0.98  0.00  0.00  0.00  0.10  0.00
  HS02004881HS02006253    1.00   0.02  0.00  0.00  0.62  0.06  0.00  0.31  0.49  0.00
  YS02001793JiankangQianchi    1.00   0.00  0.00  0.00  0.73  0.27  0.00  0.00  0.34  0.00
  YS02001757CaochengTiaoxuchi    1.00   0.00  0.06  0.00  0.92  0.03  0.00  0.00  0.00  0.00
  WSF200WS02003060        1.00   0.00  0.01  0.00  0.97  0.02  0.00  0.00  0.47  0.00
  1                       1.00   0.00  0.00  0.00  0.00  1.00  0.00  0.00  0.55  0.00
  
  
  *************************
  Conduit Surcharge Summary
  *************************
  
  ----------------------------------------------------------------------------
                                                           Hours        Hours 
                         --------- Hours Full --------   Above Full   Capacity
  Conduit                Both Ends  Upstream  Dnstream   Normal Flow   Limited
  ----------------------------------------------------------------------------
  WS02006229WS02006228        3.16      3.31      3.16      4.39         3.16
  WS02006256WS02006235        5.96      5.96      6.97      4.79         0.01
  WS02006253WS02006251        0.57      0.57      0.59      0.01         0.01
  WS02006252WS02006251        0.12      0.12      0.38      0.01         0.01
  WS02006251WS02006249        0.57      0.57      0.63      0.01         0.01
  WS02006249WS02006248        0.61      0.61      0.63      1.78         0.01
  WS02006248WS02006247        0.64      0.64      0.79      0.01         0.01
  WS02006247WS02006245        0.80      0.81      0.81      2.78         0.44
  WS02006245WS02006243        0.83      0.83      0.97      0.01         0.01
  WS02006243WS02006242        1.00      1.00      2.02      0.01         0.01
  WS02006242WS02006240        1.76      1.76      2.33      0.01         0.01
  WS02006240WS02006239        1.93      1.93      2.31      0.01         0.01
  WS02006239WS02006238        2.58      2.58      2.92      0.01         0.01
  WS02006238WS02006235        2.90      2.90      3.17      0.01         0.02
  WS02006235WS02006234        2.36      2.36      2.78      5.73         0.02
  WS02006234WS02006232        2.55      2.55      3.27      0.01         0.01
  WS02006232WS02006231        1.53      1.53      3.27      0.01         0.01
[...]
  YS02001779YS02001774        6.12      6.12      6.19      0.01         0.01
  YS02001649YS02001757        6.19      6.19      6.23      0.01         0.01
  YS02001767YS02001765        6.18      6.18      6.18      0.01         0.01
  YS02006561YS02001783        1.69      1.69      1.93      0.01         0.01
  YS02001783YS02001784        1.91      1.93      1.91      2.12         1.89
  YS02001784YS02001785        1.86      1.91      1.86      2.91         1.85
  YS02001788YS02001790        1.80      1.80      2.67      0.01         0.01
  YS02001790YS02001791        2.67      2.67      2.77      1.82         1.80
  YS02001791YS02001793        2.76      2.76      3.11      0.01         0.01
  YS02001910YS02001907        1.93      1.93      2.40      0.01         0.01
  YS02001786YS02001788        1.80      1.86      1.80      2.54         1.80
  YS02001915YS02001910        1.80      1.80      1.93      0.01         0.01
  YS02001918YS02001915        1.65      1.65      1.80      0.01         0.01
  YS02001923YS02001920        1.49      1.49      1.68      0.01         0.01
  YS02001926YS02001923        0.01      0.01      0.01      0.01         0.01
  YS02001929YS02001926        0.01      0.01      0.01      0.01         0.01
  YS02001920YS02001918        1.65      1.65      1.68      0.01         0.01
  YS02001629YS02163301        6.16      6.16      6.17      0.01         0.01
  YS02001619YS02001622        6.09      6.09      6.10      0.01         0.02
  YS02001622YS02001625        6.10      6.10      6.15      0.01         0.01
  YS02001625YS02001629        6.08      6.08      6.15      0.01         0.01
  YS02163301YS02001633        6.17      6.17      6.18      0.01         0.01
  YS02163601YS02164001        6.17      6.17      6.20      0.01         0.01
  YS02164001YS02001641        6.17      6.17      6.18      0.01         0.03
  YS02001641YS02001644        6.18      6.18      6.18      2.37         2.51
  YS02001647YS02001649        6.15      6.15      6.19      0.01         0.01
  YS02006553YS02006556        2.11      2.11      2.47      0.01         0.01
  YS02006556YS02006558        2.21      2.21      2.54      0.01         0.01
  YSB6556YSB1171              0.01      0.01      0.30      0.01         0.01
  YS02001907YS02006553        2.94      2.94      3.13      0.01         0.01
  YS02006558YS02006561        1.78      2.07      1.78      2.78         1.78
  YS02001633YS02163601        6.17      6.17      6.20      0.01         0.01
  YS02001644YS02001647        6.15      6.15      6.18      0.01         0.01
  YS02001745YS02001748        0.01      0.01      6.04      0.01         0.01
  YS02001748YS02001751        6.05      6.05      6.09      0.01         0.01
  YS02001751YS02001754        6.09      6.09      6.14      0.01         0.01
  YS02001754YS02001757        6.15      6.15      6.23      0.01         0.01
  YS02001882YS02001884        1.80      1.80      1.82      0.01         0.01
  YS02001884YS02001887        1.85      1.85      1.88      0.01         0.01
  YS02001890YS02001895        1.78      1.78      1.94      0.01         0.01
  YS02001895YS02001898        1.78      1.78      1.78      0.01         0.01
  YS02001898YS02001901        1.79      1.79      1.85      0.01         0.01
  YS02001901YS02001904        1.83      1.83      1.85      0.01         0.01
  YS02001904YS02001907        1.83      1.83      2.51      0.01         0.01
  YS02001887YS02001890        1.89      1.89      1.92      0.52         0.01
  YS02001652YS02001649        6.16      6.16      6.19      0.01         0.01
  YS02001655YS02001652        6.10      6.10      6.15      0.01         0.01
  YS02001658YS02001655        6.05      6.05      6.10      0.01         0.01
  YS02001661YS02001658        0.17      0.17      6.05      0.01         0.01
  YS02001664YS02001661        0.01      0.01      1.95      0.01         0.01
  HS02004881HS02006253        0.01      0.01      0.34      0.01         0.01
  YS02001793JiankangQianchi        3.01      3.01      4.46      0.01         0.01
  YS02001757CaochengTiaoxuchi        5.75      5.75      6.23      0.01         0.01
  
  
  ***************
  Pumping Summary
  ***************
  
  ---------------------------------------------------------------------------------------------------------
                                                  Min       Avg       Max     Total     Power    % Time Off
                        Percent   Number of      Flow      Flow      Flow    Volume     Usage    Pump Curve
  Pump                 Utilized   Start-Ups       LPS       LPS       LPS  10^6 ltr     Kw-hr    Low   High
  ---------------------------------------------------------------------------------------------------------
  CC-Pump-1               55.30           4      0.00    148.24    200.00     2.100      1.15    0.0    0.0
  CC-Pump-2                0.00           0      0.00      0.00      0.00     0.000      0.00    0.0    0.0
  JK-Pump-1               65.96           4      0.00    248.32    300.00     4.436     57.14    0.0    0.0
  JK-Pump-2               55.33           3      0.00    473.04    683.00     7.323     87.40    0.0   97.7
  XR-Pump-1              100.00           1      0.00     95.00     95.00     2.679     22.59    0.0    0.0
  XR-Pump-2              100.00           1      0.00     92.93     95.00     2.565     20.31    0.0    0.0
  XR-Pump-3               93.62           3      0.00     93.02     95.00     2.394     16.48    0.0    0.0
  XR-Pump-4               93.62           3      0.00     93.02     95.00     2.394     16.48    0.0    0.0
  
  
  ***************************
  Link Pollutant Load Summary
  ***************************
  
  ------------------------------------------------------------------------------------------
                                 COD            SS            TN            TP         NH4-N
  Link                            kg            kg            kg            kg            kg
  ------------------------------------------------------------------------------------------
  WS02003066WSF200           978.434      1886.853        24.011         2.046        12.451
  WS02006287WS02006284       438.047       854.452        12.586         1.181         6.763
  WS02006284WS02006280       438.541       855.241        12.633         1.187         6.792
  WS02006280WS02006229       438.551       855.295        12.632         1.187         6.791
  WS02006229WS02006228       974.726      1880.595        23.473         1.972        12.109
  WS02006256WS02006235       264.843       499.434         5.574         0.419         2.777
  WS02006253WS02006251        79.933       161.614         1.639         0.117         0.795
  WS02006252WS02006251       223.310       428.466         4.233         0.291         2.035
  WS02006251WS02006249       299.725       583.317         5.835         0.408         2.818
  WS02006249WS02006248       286.707       555.906         5.586         0.390         2.697
  WS02006248WS02006247       283.891       549.942         5.532         0.386         2.671
  WS02006247WS02006245       283.981       550.225         5.532         0.386         2.671
  WS02006245WS02006243       283.955       550.379         5.528         0.386         2.669
  WS02006243WS02006242       284.658       551.789         5.545         0.387         2.678
  WS02006242WS02006240       284.024       550.379         5.537         0.387         2.674
  WS02006240WS02006239       284.218       550.337         5.553         0.389         2.684
  WS02006239WS02006238       285.112       551.338         5.594         0.393         2.708
  WS02006238WS02006235       285.617       551.801         5.616         0.395         2.721
  WS02006235WS02006234       541.122      1034.634        10.950         0.794         5.372
  WS02006234WS02006232       540.174      1032.831        10.934         0.793         5.365
  WS02006232WS02006231       539.277      1031.134        10.917         0.792         5.356
  WS02006231WS02006230       538.775      1030.230        10.909         0.792         5.353
  WS02006230WS02006229       538.545      1029.755        10.918         0.793         5.360
  WS02006228WS02006109       973.340      1877.987        23.436         1.969        12.089
  WS02006116WS02004401       989.665      1908.005        24.293         2.070        12.598
  WS02006115WS02006116       991.424      1911.287        24.342         2.075        12.625
  WS02006113WS02006111       978.005      1884.538        24.140         2.061        12.538
  WS02006112WS02006115       993.204      1914.567        24.398         2.080        12.656
  WS02006111WS02006112       977.063      1882.754        24.111         2.058        12.522
  WS02006110WS02006113       978.873      1886.103        24.168         2.063        12.554
  WS02006109WS02006110       980.521      1889.079        24.223         2.069        12.584
  WS02004411WS02004412       980.699      1891.021        24.099         2.056        12.502
  WS02004401WS02004402       987.903      1904.754        24.238         2.065        12.568
  WS02004413WS02003067       978.817      1887.631        24.020         2.047        12.456
  WS02004412WS02004413       979.880      1889.520        24.068         2.053        12.484
  WS02004410WS02004411       981.347      1892.229        24.122         2.058        12.514
  WS02004409WS02004410       982.085      1893.588        24.148         2.061        12.529
  WS02004407WS02004409       982.629      1894.614        24.165         2.062        12.538
  WS02004406WS02004407       982.639      1894.669        24.161         2.062        12.536
  WS02004405WS02004406       984.116      1897.357        24.218         2.068        12.568
  WS02004404WS02004405       985.222      1899.510        24.229         2.068        12.572
  WS02004403WS02004404       984.982      1899.349        24.148         2.057        12.519
  WS02004402WS02004403       986.362      1901.893        24.193         2.061        12.544
  WS02004139WS02001211      1348.064      2285.578       100.945        12.174        61.797
  WS02004138WS02004139      1354.134      2295.818       101.395        12.228        62.073
  WS02003067WS02003066       978.546      1887.075        24.015         2.047        12.453
  WS02001213WS02003059      1382.197      2339.053       104.505        12.623        64.035
  WS02001212WS02001213      1391.244      2354.152       105.220        12.710        64.476
  WS02001211WS02001212      1392.739      2356.617       105.344        12.725        64.552
  WS02003072WS02003073      2462.315      4387.369       138.576        15.932        82.787
  WS02003069WS02003072      2467.042      4395.193       138.962        15.979        83.026
  WS02003060WS02003069      2469.456      4399.398       139.111        15.996        83.115
  WS02003059WS02003060      1379.634      2334.620       104.341        12.604        63.937
  HS02004901HS02004770        19.399        38.443         0.369         0.028         0.174
  HS02004876HS02004881        64.837       131.145         1.382         0.100         0.674
  HS02004870HS02004876        49.298        99.612         1.094         0.080         0.537
  HS02004842HS02004848         9.278        18.135         0.191         0.013         0.089
  HS02004837HS02004842        13.925        25.523         0.662         0.072         0.384
  HS02004830HS02004837        81.307       145.730         4.858         0.568         2.931
  HS02004824HS02004830        82.100       147.033         4.931         0.577         2.976
  HS02004817HS02004824       118.561       221.799         5.667         0.624         3.333
  HS02004770HS02004777        73.683       147.823         1.507         0.104         0.700
  HS02004799HS02004480       235.070       460.611         5.678         0.484         2.882
  HS02004792HS02004799       214.133       417.311         5.330         0.464         2.722
  HS02004788HS02004792       116.310       227.330         3.333         0.303         1.755
  HS02004785HS02004788        75.097       150.083         1.653         0.122         0.793
  HS02004777HS02004785        74.428       149.010         1.592         0.115         0.755
  HS02004480HS02004478       294.401       579.879         6.703         0.559         3.370
  HS02004479HS02004480        62.977       125.156         1.335         0.113         0.681
  HS02004862HS02004870        37.530        74.844         0.862         0.066         0.425
  HS02004848HS02004852        15.821        31.380         0.320         0.022         0.149
  HS02004856HS02004862        25.850        52.195         0.514         0.035         0.242
  HS02004852HS02004856        15.834        31.402         0.320         0.022         0.149
  HS02004802HS02004478       144.588       276.093         5.948         0.629         3.432
  HS02004478WS02006287       438.200       854.676        12.602         1.183         6.773
  HS02004817HS02004807       117.201       219.651         5.527         0.607         3.246
  HS02004807HS02004802       144.755       276.349         5.980         0.634         3.453
  YS02001759YS02001757       391.321       741.037         7.627         0.535         3.719
  YS02001762YS02001759       247.273       468.130         4.961         0.351         2.433
  YS02001765YS02001762       249.385       473.411         5.015         0.355         2.462
  YS02001770YS02001767       255.421       488.374         5.017         0.347         2.444
  YS02001774YS02001770       498.449       972.989         9.646         0.649         4.671
  YS02001779YS02001774       497.879       971.931         9.716         0.661         4.720
  YS02001649YS02001757       490.686       921.054         9.737         0.665         4.695
  YS02001767YS02001765       252.290       480.256         5.084         0.361         2.499
  YS02006561YS02001783      1263.501      2385.305        26.080         1.927        12.911
  YS02001783YS02001784      1263.390      2385.126        26.076         1.927        12.908
  YS02001784YS02001785      1270.743      2396.905        26.789         2.016        13.354
  YS02001788YS02001790      1271.327      2397.828        26.860         2.025        13.400
  YS02001790YS02001791      1272.379      2399.516        26.961         2.038        13.463
  YS02001791YS02001793      1272.258      2399.292        26.956         2.037        13.460
  YS02001910YS02001907       566.052      1068.757        12.815         0.949         6.476
  YS02001786YS02001788      1270.924      2397.187        26.816         2.020        13.372
  YS02001915YS02001910       565.804      1068.256        12.769         0.942         6.445
  YS02001918YS02001915       279.392       506.653         6.950         0.600         3.657
  YS02001923YS02001920       254.128       463.495         4.925         0.354         2.407
  YS02001926YS02001923       251.096       458.034         4.807         0.342         2.340
  YS02001929YS02001926       248.354       453.247         4.682         0.329         2.267
  YS02001920YS02001918       275.259       497.991         6.858         0.594         3.612
  YS02001629YS02163301        89.636       159.232         1.893         0.124         0.888
  YS02001619YS02001622       259.373       485.219         5.243         0.348         2.461
  YS02001622YS02001625       258.396       483.681         5.218         0.346         2.450
  YS02001625YS02001629        86.702       153.413         1.848         0.120         0.865
  YS02163301YS02001633        94.465       168.704         1.970         0.131         0.926
  YS02163601YS02164001       529.047       976.539        10.165         0.735         4.886
  YS02164001YS02001641       528.950       976.364        10.153         0.733         4.878
  YS02001641YS02001644       529.946       978.025        10.164         0.734         4.883
  YS02001647YS02001649       641.091      1205.195        12.731         0.881         6.094
  YS02006553YS02006556       782.530      1458.347        16.649         1.262         8.342
  YS02006556YS02006558       782.701      1458.663        16.614         1.257         8.318
  YSB6556YSB1171              36.518        72.728         0.718         0.059         0.359
  YS02001907YS02006553       782.506      1458.321        16.676         1.266         8.360
  YS02006558YS02006561      1263.496      2385.291        26.080         1.927        12.910
  YS02001633YS02163601       529.657       977.508        10.142         0.730         4.868
  YS02001644YS02001647       649.446      1220.906        12.861         0.890         6.155
  YS02001745YS02001748       354.020       679.879         6.988         0.437         3.357
  YS02001748YS02001751       353.313       678.674         6.995         0.440         3.365
  YS02001751YS02001754       352.419       677.206         6.981         0.440         3.360
  YS02001754YS02001757       353.231       678.416         7.148         0.462         3.468
  YS02001882YS02001884         4.390         7.809         0.084         0.006         0.041
  YS02001884YS02001887         7.404        13.371         0.140         0.011         0.069
  YS02001890YS02001895       614.626      1175.108        11.358         0.858         5.542
  YS02001895YS02001898       614.505      1174.969        11.353         0.858         5.539
  YS02001898YS02001901       614.369      1174.685        11.350         0.857         5.538
  YS02001901YS02001904       614.126      1174.342        11.356         0.859         5.542
  YS02001904YS02001907       614.539      1174.947        11.417         0.866         5.581
  YS02001887YS02001890       669.130      1284.121        12.353         0.936         6.031
  YS02001652YS02001649       313.202       594.633         6.217         0.450         2.922
  YS02001655YS02001652       313.630       595.367         6.229         0.451         2.928
  YS02001658YS02001655       313.005       594.415         6.140         0.439         2.870
  YS02001661YS02001658       313.431       595.174         6.149         0.440         2.875
  YS02001664YS02001661       326.357       615.434         6.462         0.461         3.017
  YSB1154YSB6556              36.099        72.065         0.671         0.053         0.330
  YSB1174YSB1171              24.944        50.009         0.488         0.039         0.242
  YSB1171HS02004479           62.897       125.010         1.340         0.114         0.684
  HS02004881HS02006253        73.052       148.206         1.533         0.110         0.747
  YS02001793JiankangQianchi      1272.891      2400.344        26.980         2.040        13.473
  YS02001757CaochengTiaoxuchi       600.597      1140.819        11.615         0.799         5.601
  WSF200WS02003060           978.557      1887.041        24.020         2.048        12.457
  1                         2468.415      4396.444       139.311        16.026        83.254
  CC-Pump-1                  223.008       427.853         4.226         0.291         2.031
  CC-Pump-2                    0.000         0.000         0.000         0.000         0.000
  JK-Pump-1                  365.566       693.868         7.583         0.567         3.766
  JK-Pump-2                  733.098      1406.699        14.708         1.078         7.241
  XR-Pump-1                  374.636       631.808        28.780         3.485        17.660
  XR-Pump-2                  352.413       596.215        26.667         3.221        16.342
  XR-Pump-3                  315.441       537.052        23.128         2.779        14.130
  XR-Pump-4                  315.441       537.052        23.128         2.779        14.130
  

  Analysis begun on:  Sun Jun 13 16:05:38 2021
  Analysis ended on:  Sun Jun 13 16:05:41 2021
  Total elapsed time: 00:00:03