
  EPA STORM WATER MANAGEMENT MODEL - VERSION 5.1 (Build 5.3.0.dev0)
  --------------------------------------------------------------

  WARNING 09: time series interval greater than recording interval for Rain Gage RG1
  WARNING 09: time series interval greater than recording interval for Rain Gage RG2
  WARNING 09: time series interval greater than recording interval for Rain Gage RG3
  WARNING 09: time series interval greater than recording interval for Rain Gage RG4
  
  *********************************************************
  NOTE: The summary statistics displayed in this report are
  based on results found at every computational time step,  
  not just on results from each reporting time step.
  *********************************************************
  
  ****************
  Analysis Options
  ****************
  Flow Units ............... CMS
  Process Models:
    Rainfall/Runoff ........ YES
    RDII ................... NO
    Snowmelt ............... NO
    Groundwater ............ NO
    Flow Routing ........... YES
    Ponding Allowed ........ YES
    Water Quality .......... NO
  Infiltration Method ...... HORTON
  Flow Routing Method ...... DYNWAVE
  Surcharge Method ......... EXTRAN
  Starting Date ............ 08/28/2015 00:00:00
  Ending Date .............. 08/28/2015 23:40:00
  Antecedent Dry Days ...... 0.0
  Report Time Step ......... 00:01:00
  Wet Time Step ............ 00:01:00
  Dry Time Step ............ 00:01:00
  Routing Time Step ........ 5.00 sec
  Variable Time Step ....... YES
  Maximum Trials ........... 8
  Number of Threads ........ 1
  Head Tolerance ........... 0.001500 m
  
  
  **************************        Volume         Depth
  Runoff Quantity Continuity     hectare-m            mm
  **************************     ---------       -------
  Total Precipitation ......         2.248        12.473
  Evaporation Loss .........         0.000         0.000
  Infiltration Loss ........         0.000         0.000
  Surface Runoff ...........         2.229        12.370
  Final Storage ............         0.019         0.106
  Continuity Error (%) .....        -0.029
  
  
  **************************        Volume        Volume
  Flow Routing Continuity        hectare-m      10^6 ltr
  **************************     ---------     ---------
  Dry Weather Inflow .......         0.758         7.576
  Wet Weather Inflow .......         2.229        22.291
  Groundwater Inflow .......         0.000         0.000
  RDII Inflow ..............         0.000         0.000
  External Inflow ..........         0.000         0.000
  External Outflow .........         1.728        17.277
  Flooding Loss ............         0.352         3.517
  Evaporation Loss .........         0.000         0.000
  Exfiltration Loss ........         0.000         0.000
  Initial Stored Volume ....         0.000         0.000
  Final Stored Volume ......         0.713         7.134
  Continuity Error (%) .....         6.491
  
  
  *************************
  Highest Continuity Errors
  *************************
  Node T2 (21.95%)
  Node T3 (13.44%)
  Node T4 (11.91%)
  Node T5 (8.88%)
  Node T6 (8.77%)
  
  
  ***************************
  Time-Step Critical Elements
  ***************************
  None
  
  
  ********************************
  Highest Flow Instability Indexes
  ********************************
  Link C15 (2)
  
  
  *************************
  Routing Time Step Summary
  *************************
  Minimum Time Step           :     4.50 sec
  Average Time Step           :     5.00 sec
  Maximum Time Step           :     5.00 sec
  Percent in Steady State     :     0.00
  Average Iterations per Step :     2.00
  Percent Not Converging      :     0.00
  
  
  ***************************
  Subcatchment Runoff Summary
  ***************************
  
  ------------------------------------------------------------------------------------------------------------------------------
                            Total      Total      Total      Total     Imperv       Perv      Total       Total     Peak  Runoff
                           Precip      Runon       Evap      Infil     Runoff     Runoff     Runoff      Runoff   Runoff   Coeff
  Subcatchment                 mm         mm         mm         mm         mm         mm         mm    10^6 ltr      CMS
  ------------------------------------------------------------------------------------------------------------------------------
  SC01                      12.78       0.00       0.00       0.00      12.71       0.00      12.71        4.19     0.14   0.994
  SC02                      12.80       0.00       0.00       0.00      12.73       0.00      12.73        2.90     0.10   0.995
  SC03                      12.00       0.00       0.00       0.00      11.95       0.00      11.95        2.15     0.08   0.995
  SC04                      12.80       0.00       0.00       0.00      12.68       0.00      12.68        0.87     0.03   0.990
  SC05                      12.78       0.00       0.00       0.00      12.70       0.00      12.70        1.98     0.06   0.994
  SC06                      12.27       0.00       0.00       0.00      12.07       0.00      12.07        3.93     0.15   0.984
  SC07                      12.80       0.00       0.00       0.00      12.68       0.00      12.68        0.60     0.02   0.990
  SC08                      12.00       0.00       0.00       0.00      11.91       0.00      11.91        3.34     0.11   0.993
  SC09                      12.27       0.00       0.00       0.00      12.15       0.00      12.15        0.84     0.04   0.990
  SC010                     12.78       0.00       0.00       0.00      12.69       0.00      12.69        1.49     0.05   0.993
  
  
  ******************
  Node Depth Summary
  ******************
  
  ---------------------------------------------------------------------------------
                                 Average  Maximum  Maximum  Time of Max    Reported
                                   Depth    Depth      HGL   Occurrence   Max Depth
  Node                 Type       Meters   Meters   Meters  days hr:min      Meters
  ---------------------------------------------------------------------------------
  J1                   JUNCTION     0.06     0.09    34.09     0  07:27        0.09
  J3                   JUNCTION     0.10     0.14    18.14     0  17:50        0.14
  CSO7                 JUNCTION     0.08     0.12    34.12     0  11:36        0.12
  J5                   JUNCTION     0.05     0.08    32.08     0  11:37        0.08
  CSO9                 JUNCTION     0.09     0.17    40.17     0  18:02        0.17
  J8                   JUNCTION     0.09     0.15    36.15     0  18:12        0.15
  CSO8                 JUNCTION     0.10     0.20    32.20     0  07:16        0.20
  J10                  JUNCTION     0.08     0.14    29.14     0  07:22        0.14
  J13                  JUNCTION     0.06     0.09    29.09     0  07:22        0.09
  J15                  JUNCTION     0.15     0.20    15.20     0  13:03        0.20
  J16                  JUNCTION     0.06     0.10    30.10     0  07:27        0.10
  CSO10                JUNCTION     0.10     0.17    30.17     0  07:27        0.17
  J12                  JUNCTION     0.48     1.00    27.00     0  16:34        1.00
  J4                   JUNCTION     0.10     0.15    33.15     0  11:38        0.15
  J6                   JUNCTION     0.05     0.07    25.07     0  14:10        0.07
  J2                   JUNCTION     0.07     0.08    25.08     0  13:56        0.08
  J19                  JUNCTION     0.14     0.17     8.17     0  13:08        0.17
  J9                   JUNCTION     0.08     0.11    29.11     0  12:00        0.11
  J14                  JUNCTION     0.11     0.15    20.15     0  15:51        0.15
  J17                  JUNCTION     0.05     0.08    20.08     0  16:20        0.08
  J7                   JUNCTION     0.07     0.12    39.12     0  18:09        0.12
  J11                  JUNCTION     0.08     0.15    31.15     0  07:23        0.15
  J18                  JUNCTION     0.05     0.08    29.08     0  07:38        0.08
  Out_to_WWTP          OUTFALL      0.14     0.17     6.17     0  13:06        0.17
  T5                   STORAGE      3.21     5.00    32.00     0  13:13        5.00
  T4                   STORAGE      3.38     5.00    32.00     0  11:49        5.00
  T6                   STORAGE      3.64     5.00    36.00     0  08:56        5.00
  T3                   STORAGE      3.40     5.00    27.00     0  16:29        5.00
  T2                   STORAGE      3.50     5.00    26.00     0  11:32        5.00
  T1                   STORAGE      3.25     5.00    15.00     0  13:08        5.00
  
  
  *******************
  Node Inflow Summary
  *******************
  
  -------------------------------------------------------------------------------------------------
                                  Maximum  Maximum                  Lateral       Total        Flow
                                  Lateral    Total  Time of Max      Inflow      Inflow     Balance
                                   Inflow   Inflow   Occurrence      Volume      Volume       Error
  Node                 Type           CMS      CMS  days hr:min    10^6 ltr    10^6 ltr     Percent
  -------------------------------------------------------------------------------------------------
  J1                   JUNCTION     0.080    0.080     0  07:26        3.07        3.07      -0.042
  J3                   JUNCTION     0.000    0.190     0  17:44           0        9.71       0.365
  CSO7                 JUNCTION     0.028    0.028     0  11:36        1.17        1.17       0.010
  J5                   JUNCTION     0.029    0.054     0  11:36        1.12        2.29      -0.019
  CSO9                 JUNCTION     0.044    0.044     0  18:01        1.22        1.22       0.009
  J8                   JUNCTION     0.169    0.207     0  18:11        5.76        6.98      -0.008
  CSO8                 JUNCTION     0.117    0.117     0  07:16        3.78        3.78      -0.001
  J10                  JUNCTION     0.088    0.192     0  07:21         2.9        6.68      -0.061
  J13                  JUNCTION     0.106    0.106     0  07:21        3.81        3.81      -0.124
  J15                  JUNCTION     0.000    0.339     0  12:57           0        18.2       0.400
  J16                  JUNCTION     0.153    0.153     0  07:26        5.27        5.27      -0.023
  CSO10                JUNCTION     0.050    0.050     0  07:26        1.76        1.76       0.006
  J12                  JUNCTION     0.000    0.248     0  07:22           0        10.2       5.327
  J4                   JUNCTION     0.000    0.027     0  11:36           0        1.17       0.099
  J6                   JUNCTION     0.000    0.028     0  12:00           0        1.43       0.263
  J2                   JUNCTION     0.000    0.039     0  13:13           0         2.5       0.180
  J19                  JUNCTION     0.000    0.271     0  13:08           0        17.3       0.055
  J9                   JUNCTION     0.000    0.075     0  11:40           0        3.57       0.469
  J14                  JUNCTION     0.000    0.124     0  17:40           0         5.8       0.120
  J17                  JUNCTION     0.000    0.033     0  14:20           0        1.46       0.230
  J7                   JUNCTION     0.000    0.042     0  18:07           0        1.22       0.087
  J11                  JUNCTION     0.000    0.116     0  07:16           0        3.78       0.012
  J18                  JUNCTION     0.000    0.048     0  07:27           0        1.76      -0.008
  Out_to_WWTP          OUTFALL      0.000    0.271     0  13:09           0        17.3       0.000
  T5                   STORAGE      0.000    0.076     0  07:27           0        3.08       9.750
  T4                   STORAGE      0.000    0.054     0  11:37           0        2.29      13.520
  T6                   STORAGE      0.000    0.202     0  18:12           0        6.98       9.616
  T3                   STORAGE      0.000    0.245     0  07:24           0        9.73      15.528
  T2                   STORAGE      0.000    0.100     0  07:22           0        3.81      28.129
  T1                   STORAGE      0.000    0.331     0  13:03           0        18.1       2.285
  
  
  **********************
  Node Surcharge Summary
  **********************
  
  No nodes were surcharged.
  
  
  *********************
  Node Flooding Summary
  *********************
  
  Flooding refers to all water that overflows a node, whether it ponds or not.
  --------------------------------------------------------------------------
                                                             Total   Maximum
                                 Maximum   Time of Max       Flood    Ponded
                        Hours       Rate    Occurrence      Volume     Depth
  Node                 Flooded       CMS   days hr:min    10^6 ltr    Meters
  --------------------------------------------------------------------------
  T5                      1.26     0.019      0  13:13       0.038     0.000
  T4                      4.36     0.035      0  11:50       0.212     0.000
  T6                     10.68     0.170      0  18:08       2.366     0.000
  T3                      1.02     0.097      0  17:13       0.180     0.000
  T2                      5.70     0.082      0  11:32       0.634     0.000
  T1                      0.77     0.057      0  13:08       0.087     0.000
  
  
  **********************
  Storage Volume Summary
  **********************
  
  --------------------------------------------------------------------------------------------------
                         Average     Avg  Evap Exfil       Maximum     Max    Time of Max    Maximum
                          Volume    Pcnt  Pcnt  Pcnt        Volume    Pcnt     Occurrence    Outflow
  Storage Unit           1000 m3    Full  Loss  Loss       1000 m3    Full    days hr:min        CMS
  --------------------------------------------------------------------------------------------------
  T5                       0.321      64     0     0         0.500     100       0  13:13      0.039
  T4                       0.338      68     0     0         0.500     100       0  11:49      0.028
  T6                       0.437      73     0     0         0.600     100       0  08:56      0.075
  T3                       1.769      68     0     0         2.600     100       0  16:29      0.124
  T2                       0.701      70     0     0         1.000     100       0  11:32      0.033
  T1                       0.455      65     0     0         0.700     100       0  13:08      0.271
  
  
  ***********************
  Outfall Loading Summary
  ***********************
  
  -----------------------------------------------------------
                         Flow       Avg       Max       Total
                         Freq      Flow      Flow      Volume
  Outfall Node           Pcnt       CMS       CMS    10^6 ltr
  -----------------------------------------------------------
  Out_to_WWTP           99.43     0.204     0.271      17.277
  -----------------------------------------------------------
  System                99.43     0.204     0.271      17.277
  
  
  ********************
  Link Flow Summary
  ********************
  
  -----------------------------------------------------------------------------
                                 Maximum  Time of Max   Maximum    Max/    Max/
                                  |Flow|   Occurrence   |Veloc|    Full    Full
  Link                 Type          CMS  days hr:min     m/sec    Flow   Depth
  -----------------------------------------------------------------------------
  C1                   CONDUIT     0.039     0  13:56      1.04    0.01    0.11
  C6                   CONDUIT     0.027     0  11:38      1.08    0.42    0.38
  C2                   CONDUIT     0.028     0  14:10      1.01    0.03    0.17
  C9                   CONDUIT     0.040     0  18:09      0.91    0.14    0.27
  C16                  CONDUIT     0.109     0  07:23      1.12    0.01    0.07
  C3                   CONDUIT     0.124     0  17:42      1.84    0.05    0.14
  C19                  CONDUIT     0.033     0  16:20      0.72    0.01    0.13
  C11                  CONDUIT     0.189     0  17:50      1.80    0.01    0.08
  C20                  CONDUIT     0.144     0  07:27      1.55    0.00    0.07
  C22                  CONDUIT     0.046     0  07:38      0.91    0.02    0.17
  C12                  CONDUIT     0.075     0  12:00      0.91    0.01    0.28
  C17                  CONDUIT     0.186     0  07:22      1.77    0.01    0.28
  C10                  CONDUIT     0.202     0  18:12      0.94    0.02    0.55
  C13                  CONDUIT     0.245     0  07:24      1.01    0.01    0.75
  C18                  CONDUIT     0.100     0  07:22      1.01    0.00    0.52
  C23                  CONDUIT     0.331     0  13:03      0.95    0.04    0.57
  C4                   CONDUIT     0.076     0  07:27      1.13    0.02    0.55
  C7                   CONDUIT     0.054     0  11:37      0.83    0.01    0.54
  C14                  CONDUIT     0.271     0  13:09      2.08    0.02    0.09
  C5                   CONDUIT     0.027     0  11:36      1.00    0.47    0.53
  C8                   CONDUIT     0.042     0  18:07      1.21    0.53    0.46
  C15                  CONDUIT     0.116     0  07:16      2.08    0.37    0.38
  C21                  CONDUIT     0.048     0  07:27      1.34    0.28    0.29
  V4                   ORIFICE     0.028     0  12:00                      0.35
  V5                   ORIFICE     0.039     0  13:13                      1.00
  V1                   ORIFICE     0.271     0  13:08                      1.00
  V6                   ORIFICE     0.075     0  11:40                      0.43
  V3                   ORIFICE     0.124     0  17:40                      0.65
  V2                   ORIFICE     0.033     0  14:20                      0.24
  
  
  ***************************
  Flow Classification Summary
  ***************************
  
  -------------------------------------------------------------------------------------
                      Adjusted    ---------- Fraction of Time in Flow Class ---------- 
                       /Actual         Up    Down  Sub   Sup   Up    Down  Norm  Inlet 
  Conduit               Length    Dry  Dry   Dry   Crit  Crit  Crit  Crit  Ltd   Ctrl  
  -------------------------------------------------------------------------------------
  C1                      1.00   0.00  0.00  0.00  0.05  0.95  0.00  0.00  0.96  0.00
  C6                      1.00   0.00  0.00  0.00  0.01  0.99  0.00  0.00  0.00  0.00
  C2                      1.00   0.00  0.00  0.00  0.61  0.38  0.00  0.00  0.98  0.00
  C9                      1.00   0.00  0.00  0.00  1.00  0.00  0.00  0.00  1.00  0.00
  C16                     1.00   0.00  0.02  0.00  0.32  0.66  0.00  0.00  0.31  0.00
  C3                      1.00   0.00  0.00  0.00  0.03  0.96  0.00  0.00  0.48  0.00
  C19                     1.00   0.00  0.00  0.00  1.00  0.00  0.00  0.00  1.00  0.00
  C11                     1.00   0.00  0.00  0.00  0.20  0.80  0.00  0.00  1.00  0.00
  C20                     1.00   0.00  0.00  0.00  0.43  0.57  0.00  0.00  0.99  0.00
  C22                     1.00   0.00  0.00  0.00  1.00  0.00  0.00  0.00  1.00  0.00
  C12                     1.00   0.00  0.00  0.00  0.99  0.01  0.00  0.00  1.00  0.00
  C17                     1.00   0.00  0.00  0.00  0.58  0.42  0.00  0.00  0.99  0.00
  C10                     1.00   0.00  0.00  0.00  0.93  0.07  0.00  0.00  0.98  0.00
  C13                     1.00   0.00  0.00  0.00  0.89  0.11  0.00  0.00  0.36  0.00
  C18                     1.00   0.00  0.00  0.00  0.94  0.06  0.00  0.00  0.98  0.00
  C23                     1.00   0.00  0.00  0.00  0.92  0.08  0.00  0.00  0.95  0.00
  C4                      1.00   0.00  0.00  0.00  0.94  0.06  0.00  0.00  0.98  0.00
  C7                      1.00   0.00  0.00  0.00  0.94  0.06  0.00  0.00  0.97  0.00
  C14                     1.00   0.00  0.00  0.00  0.00  1.00  0.00  0.00  0.53  0.00
  C5                      1.00   0.00  0.00  0.00  0.89  0.11  0.00  0.00  0.99  0.00
  C8                      1.00   0.00  0.00  0.00  0.13  0.87  0.00  0.00  0.00  0.00
  C15                     1.00   0.02  0.00  0.00  0.00  0.98  0.00  0.00  0.01  0.00
  C21                     1.00   0.00  0.00  0.00  0.00  1.00  0.00  0.00  0.00  0.00
  
  
  *************************
  Conduit Surcharge Summary
  *************************
  
  ----------------------------------------------------------------------------
                                                           Hours        Hours 
                         --------- Hours Full --------   Above Full   Capacity
  Conduit                Both Ends  Upstream  Dnstream   Normal Flow   Limited
  ----------------------------------------------------------------------------
  C10                         0.01      0.01     18.91      0.01         0.01
  C13                         0.01      0.01     17.08      0.01         0.01
  C18                         0.01      0.01     17.33      0.01         0.01
  C23                         0.01      0.01     19.59      0.01         0.01
  C4                          0.01      0.01     19.74      0.01         0.01
  C7                          0.01      0.01     19.45      0.01         0.01
  

  Analysis begun on:  Mon Sep 20 08:52:18 2021
  Analysis ended on:  Mon Sep 20 08:52:18 2021
  Total elapsed time: < 1 sec