
  EPA STORM WATER MANAGEMENT MODEL - VERSION 5.1 (Build 5.3.0.dev0)
  --------------------------------------------------------------

  WARNING 09: time series interval greater than recording interval for Rain Gage RG1
  WARNING 09: time series interval greater than recording interval for Rain Gage RG2
  WARNING 09: time series interval greater than recording interval for Rain Gage RG3
  WARNING 09: time series interval greater than recording interval for Rain Gage RG4
  
  *********************************************************
  NOTE: The summary statistics displayed in this report are
  based on results found at every computational time step,  
  not just on results from each reporting time step.
  *********************************************************
  
  ****************
  Analysis Options
  ****************
  Flow Units ............... CMS
  Process Models:
    Rainfall/Runoff ........ YES
    RDII ................... NO
    Snowmelt ............... NO
    Groundwater ............ NO
    Flow Routing ........... YES
    Ponding Allowed ........ YES
    Water Quality .......... NO
  Infiltration Method ...... HORTON
  Flow Routing Method ...... DYNWAVE
  Surcharge Method ......... EXTRAN
  Starting Date ............ 08/28/2015 00:00:00
  Ending Date .............. 08/28/2015 23:40:00
  Antecedent Dry Days ...... 0.0
  Report Time Step ......... 00:01:00
  Wet Time Step ............ 00:01:00
  Dry Time Step ............ 00:01:00
  Routing Time Step ........ 5.00 sec
  Variable Time Step ....... YES
  Maximum Trials ........... 8
  Number of Threads ........ 1
  Head Tolerance ........... 0.001500 m
  
  
  **************************        Volume         Depth
  Runoff Quantity Continuity     hectare-m            mm
  **************************     ---------       -------
  Total Precipitation ......         1.907        10.585
  Evaporation Loss .........         0.000         0.000
  Infiltration Loss ........         0.000         0.000
  Surface Runoff ...........         1.860        10.324
  Final Storage ............         0.058         0.324
  Continuity Error (%) .....        -0.588
  
  
  **************************        Volume        Volume
  Flow Routing Continuity        hectare-m      10^6 ltr
  **************************     ---------     ---------
  Dry Weather Inflow .......         0.758         7.576
  Wet Weather Inflow .......         1.860        18.600
  Groundwater Inflow .......         0.000         0.000
  RDII Inflow ..............         0.000         0.000
  External Inflow ..........         0.000         0.000
  External Outflow .........         0.719         7.189
  Flooding Loss ............         0.951         9.508
  Evaporation Loss .........         0.000         0.000
  Exfiltration Loss ........         0.000         0.000
  Initial Stored Volume ....         0.000         0.000
  Final Stored Volume ......         0.698         6.982
  Continuity Error (%) .....         9.539
  
  
  *************************
  Highest Continuity Errors
  *************************
  Node T2 (19.11%)
  Node T3 (18.70%)
  Node T6 (17.48%)
  Node T4 (15.84%)
  Node T5 (13.30%)
  
  
  ***************************
  Time-Step Critical Elements
  ***************************
  None
  
  
  ********************************
  Highest Flow Instability Indexes
  ********************************
  All links are stable.
  
  
  *************************
  Routing Time Step Summary
  *************************
  Minimum Time Step           :     4.56 sec
  Average Time Step           :     5.00 sec
  Maximum Time Step           :     5.00 sec
  Percent in Steady State     :     0.00
  Average Iterations per Step :     2.09
  Percent Not Converging      :     0.35
  
  
  ***************************
  Subcatchment Runoff Summary
  ***************************
  
  ------------------------------------------------------------------------------------------------------------------------------
                            Total      Total      Total      Total     Imperv       Perv      Total       Total     Peak  Runoff
                           Precip      Runon       Evap      Infil     Runoff     Runoff     Runoff      Runoff   Runoff   Coeff
  Subcatchment                 mm         mm         mm         mm         mm         mm         mm    10^6 ltr      CMS
  ------------------------------------------------------------------------------------------------------------------------------
  SC01                      13.97       0.00       0.00       0.00      13.87       0.00      13.87        4.58     6.59   0.993
  SC02                      16.77       0.00       0.00       0.00      16.70       0.00      16.70        3.80     5.42   0.996
  SC03                       4.49       0.00       0.00       0.00       4.42       0.00       4.42        0.79     1.41   0.984
  SC04                      16.77       0.00       0.00       0.00      16.22       0.00      16.22        1.12     1.00   0.967
  SC05                      13.97       0.00       0.00       0.00      13.83       0.00      13.83        2.16     2.93   0.990
  SC06                       7.12       0.00       0.00       0.00       6.48       0.00       6.48        2.11     1.32   0.910
  SC07                      16.77       0.00       0.00       0.00      16.23       0.00      16.23        0.77     0.69   0.968
  SC08                       4.49       0.00       0.00       0.00       4.26       0.00       4.26        1.19     1.12   0.949
  SC09                       7.12       0.00       0.00       0.00       6.79       0.00       6.79        0.47     0.42   0.954
  SC010                     13.97       0.00       0.00       0.00      13.73       0.00      13.73        1.61     1.89   0.983
  
  
  ******************
  Node Depth Summary
  ******************
  
  ---------------------------------------------------------------------------------
                                 Average  Maximum  Maximum  Time of Max    Reported
                                   Depth    Depth      HGL   Occurrence   Max Depth
  Node                 Type       Meters   Meters   Meters  days hr:min      Meters
  ---------------------------------------------------------------------------------
  J1                   JUNCTION     0.05     0.78    34.78     0  21:46        0.76
  J3                   JUNCTION     0.07     0.13    18.13     0  23:19        0.13
  CSO7                 JUNCTION     0.10     1.20    35.20     0  21:21        1.20
  J5                   JUNCTION     0.04     0.34    32.34     0  21:41        0.34
  CSO9                 JUNCTION     0.09     2.00    42.00     0  21:25        2.00
  J8                   JUNCTION     0.07     0.37    36.37     0  21:32        0.37
  CSO8                 JUNCTION     0.06     2.00    34.00     0  21:20        2.00
  J10                  JUNCTION     0.05     0.36    29.36     0  21:22        0.36
  J13                  JUNCTION     0.04     0.58    29.58     0  21:36        0.55
  J15                  JUNCTION     0.11     0.90    15.90     0  21:49        0.90
  J16                  JUNCTION     0.04     0.62    30.62     0  21:46        0.57
  CSO10                JUNCTION     0.08     1.00    31.00     0  21:16        1.00
  J12                  JUNCTION     0.08     0.35    26.35     0  21:27        0.35
  J4                   JUNCTION     0.09     1.14    34.14     0  21:27        0.74
  J6                   JUNCTION     0.04     0.07    25.07     0  23:00        0.07
  J2                   JUNCTION     0.05     0.08    25.08     0  22:38        0.08
  J19                  JUNCTION     0.09     0.17     8.17     0  21:46        0.17
  J9                   JUNCTION     0.07     0.11    29.11     0  23:31        0.11
  J14                  JUNCTION     0.07     0.14    20.14     0  23:12        0.14
  J17                  JUNCTION     0.04     0.08    20.08     0  22:47        0.08
  J7                   JUNCTION     0.05     0.23    39.23     0  21:46        0.23
  J11                  JUNCTION     0.04     0.29    31.29     0  21:32        0.29
  J18                  JUNCTION     0.03     0.16    29.16     0  22:06        0.16
  Out_to_WWTP          OUTFALL      0.09     0.17     6.17     0  21:46        0.17
  T5                   STORAGE      0.93     5.00    32.00     0  21:46        5.00
  T4                   STORAGE      1.17     5.00    32.00     0  21:46        5.00
  T6                   STORAGE      1.04     5.00    36.00     0  21:47        5.00
  T3                   STORAGE      0.81     3.60    25.60     0  23:09        3.60
  T2                   STORAGE      0.80     5.00    26.00     0  21:41        5.00
  T1                   STORAGE      0.82     5.00    15.00     0  21:45        5.00
  
  
  *******************
  Node Inflow Summary
  *******************
  
  -------------------------------------------------------------------------------------------------
                                  Maximum  Maximum                  Lateral       Total        Flow
                                  Lateral    Total  Time of Max      Inflow      Inflow     Balance
                                   Inflow   Inflow   Occurrence      Volume      Volume       Error
  Node                 Type           CMS      CMS  days hr:min    10^6 ltr    10^6 ltr     Percent
  -------------------------------------------------------------------------------------------------
  J1                   JUNCTION     2.943    2.943     0  21:46        3.25        3.25       0.015
  J3                   JUNCTION     0.000    0.160     0  23:11           0        4.47       0.752
  CSO7                 JUNCTION     0.693    0.693     0  21:41        1.34        1.34       0.030
  J5                   JUNCTION     0.999    1.072     0  21:41        1.37        2.25       0.133
  CSO9                 JUNCTION     0.424    0.424     0  21:31        0.85        0.85       0.013
  J8                   JUNCTION     1.331    1.444     0  21:31        3.94        4.65       0.189
  CSO8                 JUNCTION     1.116    1.116     0  21:21        1.64        1.64      -0.037
  J10                  JUNCTION     1.418    1.662     0  21:21        1.55        2.98      -0.015
  J13                  JUNCTION     5.431    5.431     0  21:36        4.71        4.71      -0.025
  J15                  JUNCTION     0.000    6.825     0  21:46           0        12.1       0.741
  J16                  JUNCTION     6.597    6.597     0  21:46        5.65        5.65      -0.137
  CSO10                JUNCTION     1.890    1.890     0  21:46        1.88        1.88      -0.025
  J12                  JUNCTION     0.000    1.396     0  21:23           0        5.43       0.633
  J4                   JUNCTION     0.000    0.079     0  21:21           0       0.889       0.290
  J6                   JUNCTION     0.000    0.028     0  22:10           0       0.751       0.370
  J2                   JUNCTION     0.000    0.039     0  21:47           0         1.2       0.468
  J19                  JUNCTION     0.000    0.271     0  21:45           0         7.2       0.169
  J9                   JUNCTION     0.000    0.075     0  21:47           0        2.47       0.731
  J14                  JUNCTION     0.000    0.105     0  23:10           0        2.53       0.258
  J17                  JUNCTION     0.000    0.033     0  21:41           0       0.902       0.718
  J7                   JUNCTION     0.000    0.127     0  21:46           0       0.715       0.360
  J11                  JUNCTION     0.000    0.486     0  21:32           0        1.45       0.590
  J18                  JUNCTION     0.000    0.202     0  22:06           0        1.06       0.199
  Out_to_WWTP          OUTFALL      0.000    0.271     0  21:47           0        7.19       0.000
  T5                   STORAGE      0.000    2.580     0  21:47           0        3.25      15.340
  T4                   STORAGE      0.000    1.015     0  21:41           0        2.25      18.828
  T6                   STORAGE      0.000    1.311     0  21:32           0        4.64      21.177
  T3                   STORAGE      0.000    1.161     0  21:27           0         5.4      23.002
  T2                   STORAGE      0.000    4.981     0  21:36           0        4.71      23.630
  T1                   STORAGE      0.000    3.772     0  21:49           0          12       6.564
  
  
  **********************
  Node Surcharge Summary
  **********************
  
  Surcharging occurs when water rises above the top of the highest conduit.
  ---------------------------------------------------------------------
                                               Max. Height   Min. Depth
                                   Hours       Above Crown    Below Rim
  Node                 Type      Surcharged         Meters       Meters
  ---------------------------------------------------------------------
  CSO7                 JUNCTION        0.92          0.945        0.000
  CSO9                 JUNCTION        0.48          1.682        0.000
  CSO8                 JUNCTION        0.30          1.547        0.000
  CSO10                JUNCTION        0.54          0.560        0.000
  J4                   JUNCTION        0.84          0.844        0.856
  
  
  *********************
  Node Flooding Summary
  *********************
  
  Flooding refers to all water that overflows a node, whether it ponds or not.
  --------------------------------------------------------------------------
                                                             Total   Maximum
                                 Maximum   Time of Max       Flood    Ponded
                        Hours       Rate    Occurrence      Volume     Depth
  Node                 Flooded       CMS   days hr:min    10^6 ltr    Meters
  --------------------------------------------------------------------------
  CSO7                    0.69     0.619      0  21:41       0.446     0.000
  CSO9                    0.34     0.298      0  21:31       0.135     0.000
  CSO8                    0.20     0.652      0  21:21       0.194     0.000
  CSO10                   0.44     1.686      0  21:46       0.820     0.000
  T5                      0.86     2.539      0  21:47       1.157     0.000
  T4                      1.89     0.685      0  21:46       0.644     0.000
  T6                      1.26     0.670      0  21:47       0.784     0.000
  T2                      1.11     4.522      0  21:41       1.933     0.000
  T1                      0.92     3.501      0  21:49       3.396     0.000
  
  
  **********************
  Storage Volume Summary
  **********************
  
  --------------------------------------------------------------------------------------------------
                         Average     Avg  Evap Exfil       Maximum     Max    Time of Max    Maximum
                          Volume    Pcnt  Pcnt  Pcnt        Volume    Pcnt     Occurrence    Outflow
  Storage Unit           1000 m3    Full  Loss  Loss       1000 m3    Full    days hr:min        CMS
  --------------------------------------------------------------------------------------------------
  T5                       0.093      19     0     0         0.500     100       0  21:46      0.039
  T4                       0.117      23     0     0         0.500     100       0  21:46      0.028
  T6                       0.125      21     0     0         0.600     100       0  21:47      0.075
  T3                       0.423      16     0     0         1.870      72       0  23:09      0.105
  T2                       0.161      16     0     0         1.000     100       0  21:41      0.033
  T1                       0.114      16     0     0         0.700     100       0  21:45      0.271
  
  
  ***********************
  Outfall Loading Summary
  ***********************
  
  -----------------------------------------------------------
                         Flow       Avg       Max       Total
                         Freq      Flow      Flow      Volume
  Outfall Node           Pcnt       CMS       CMS    10^6 ltr
  -----------------------------------------------------------
  Out_to_WWTP           99.43     0.085     0.271       7.189
  -----------------------------------------------------------
  System                99.43     0.085     0.271       7.189
  
  
  ********************
  Link Flow Summary
  ********************
  
  -----------------------------------------------------------------------------
                                 Maximum  Time of Max   Maximum    Max/    Max/
                                  |Flow|   Occurrence   |Veloc|    Full    Full
  Link                 Type          CMS  days hr:min     m/sec    Flow   Depth
  -----------------------------------------------------------------------------
  C1                   CONDUIT     0.039     0  22:38      1.06    0.01    0.10
  C6                   CONDUIT     0.078     0  21:36      1.28    1.24    1.00
  C2                   CONDUIT     0.028     0  22:55      1.04    0.03    0.15
  C9                   CONDUIT     0.127     0  21:46      1.25    0.43    0.59
  C16                  CONDUIT     0.483     0  21:29      1.77    0.05    0.16
  C3                   CONDUIT     0.105     0  23:13      1.71    0.04    0.13
  C19                  CONDUIT     0.033     0  22:45      0.65    0.01    0.49
  C11                  CONDUIT     0.158     0  23:19      1.59    0.01    0.26
  C20                  CONDUIT     6.457     0  21:46      7.51    0.20    0.34
  C22                  CONDUIT     0.202     0  22:06      1.54    0.09    0.60
  C12                  CONDUIT     0.075     0  23:00      1.13    0.01    0.11
  C17                  CONDUIT     1.364     0  21:23      4.08    0.07    0.17
  C10                  CONDUIT     1.311     0  21:32      1.13    0.13    0.62
  C13                  CONDUIT     1.161     0  21:27      0.85    0.07    0.59
  C18                  CONDUIT     4.981     0  21:36      2.32    0.19    0.65
  C23                  CONDUIT     3.772     0  21:49      2.49    0.42    0.80
  C4                   CONDUIT     2.580     0  21:47      3.53    0.63    0.89
  C7                   CONDUIT     1.015     0  21:41      1.81    0.25    0.67
  C14                  CONDUIT     0.271     0  21:47      2.08    0.02    0.09
  C5                   CONDUIT     0.079     0  21:21      1.64    1.34    1.00
  C8                   CONDUIT     0.127     0  21:46      1.92    1.60    0.86
  C15                  CONDUIT     0.486     0  21:32      3.66    1.55    0.83
  C21                  CONDUIT     0.202     0  22:06      1.90    1.16    0.69
  V4                   ORIFICE     0.028     0  22:10                      0.35
  V5                   ORIFICE     0.039     0  21:47                      1.00
  V1                   ORIFICE     0.271     0  21:45                      1.00
  V6                   ORIFICE     0.075     0  21:47                      0.43
  V3                   ORIFICE     0.105     0  23:10                      0.65
  V2                   ORIFICE     0.033     0  21:41                      0.24
  
  
  ***************************
  Flow Classification Summary
  ***************************
  
  -------------------------------------------------------------------------------------
                      Adjusted    ---------- Fraction of Time in Flow Class ---------- 
                       /Actual         Up    Down  Sub   Sup   Up    Down  Norm  Inlet 
  Conduit               Length    Dry  Dry   Dry   Crit  Crit  Crit  Crit  Ltd   Ctrl  
  -------------------------------------------------------------------------------------
  C1                      1.00   0.00  0.00  0.00  0.10  0.90  0.00  0.00  0.96  0.00
  C6                      1.00   0.00  0.00  0.00  0.05  0.95  0.00  0.00  0.00  0.00
  C2                      1.00   0.00  0.00  0.00  0.62  0.38  0.00  0.00  0.98  0.00
  C9                      1.00   0.00  0.00  0.00  1.00  0.00  0.00  0.00  1.00  0.00
  C16                     1.00   0.00  0.29  0.00  0.61  0.10  0.00  0.00  0.54  0.00
  C3                      1.00   0.00  0.00  0.00  0.03  0.96  0.00  0.00  0.39  0.00
  C19                     1.00   0.00  0.00  0.00  1.00  0.00  0.00  0.00  1.00  0.00
  C11                     1.00   0.00  0.00  0.00  0.09  0.91  0.00  0.00  1.00  0.00
  C20                     1.00   0.00  0.00  0.00  0.90  0.10  0.00  0.00  0.99  0.00
  C22                     1.00   0.00  0.00  0.00  0.96  0.04  0.00  0.00  1.00  0.00
  C12                     1.00   0.00  0.00  0.00  0.17  0.83  0.00  0.00  0.87  0.00
  C17                     1.00   0.00  0.00  0.00  0.55  0.45  0.00  0.00  0.98  0.00
  C10                     1.00   0.00  0.00  0.00  0.83  0.17  0.00  0.00  0.98  0.00
  C13                     1.00   0.00  0.00  0.00  0.77  0.23  0.00  0.00  0.92  0.00
  C18                     1.00   0.00  0.00  0.00  0.84  0.16  0.00  0.00  0.98  0.00
  C23                     1.00   0.00  0.00  0.00  0.77  0.23  0.00  0.00  0.95  0.00
  C4                      1.00   0.00  0.00  0.00  0.82  0.18  0.00  0.00  0.97  0.00
  C7                      1.00   0.00  0.00  0.00  0.95  0.05  0.00  0.00  0.97  0.00
  C14                     1.00   0.00  0.00  0.00  0.00  1.00  0.00  0.00  0.62  0.00
  C5                      1.00   0.00  0.00  0.00  0.95  0.05  0.00  0.00  0.94  0.00
  C8                      1.00   0.00  0.00  0.00  0.17  0.83  0.00  0.00  0.00  0.00
  C15                     1.00   0.29  0.06  0.00  0.03  0.62  0.00  0.00  0.13  0.00
  C21                     1.00   0.00  0.00  0.00  0.00  1.00  0.00  0.00  0.00  0.00
  
  
  *************************
  Conduit Surcharge Summary
  *************************
  
  ----------------------------------------------------------------------------
                                                           Hours        Hours 
                         --------- Hours Full --------   Above Full   Capacity
  Conduit                Both Ends  Upstream  Dnstream   Normal Flow   Limited
  ----------------------------------------------------------------------------
  C6                          0.08      0.84      0.08      0.75         0.08
  C22                         0.01      0.01      0.11      0.01         0.01
  C10                         0.01      0.01      2.16      0.01         0.01
  C13                         0.01      0.01      2.17      0.01         0.01
  C18                         0.01      0.01      2.09      0.01         0.01
  C23                         0.01      0.01      2.28      0.01         0.01
  C4                          0.01      0.01      4.55      0.01         0.01
  C7                          0.01      0.01     12.43      0.01         0.01
  C5                          0.87      0.92      0.95      0.91         0.84
  C8                          0.01      0.48      0.01      0.50         0.01
  C15                         0.01      0.30      0.01      0.32         0.01
  C21                         0.01      0.54      0.01      0.50         0.01
  

  Analysis begun on:  Mon Sep 20 17:10:29 2021
  Analysis ended on:  Mon Sep 20 17:10:29 2021
  Total elapsed time: < 1 sec