
  EPA STORM WATER MANAGEMENT MODEL - VERSION 5.1 (Build 5.3.0.dev0)
  --------------------------------------------------------------

  WARNING 09: time series interval greater than recording interval for Rain Gage RG1
  WARNING 09: time series interval greater than recording interval for Rain Gage RG2
  WARNING 09: time series interval greater than recording interval for Rain Gage RG3
  WARNING 09: time series interval greater than recording interval for Rain Gage RG4
  
  *********************************************************
  NOTE: The summary statistics displayed in this report are
  based on results found at every computational time step,  
  not just on results from each reporting time step.
  *********************************************************
  
  ****************
  Analysis Options
  ****************
  Flow Units ............... CMS
  Process Models:
    Rainfall/Runoff ........ YES
    RDII ................... NO
    Snowmelt ............... NO
    Groundwater ............ NO
    Flow Routing ........... YES
    Ponding Allowed ........ YES
    Water Quality .......... NO
  Infiltration Method ...... HORTON
  Flow Routing Method ...... DYNWAVE
  Surcharge Method ......... EXTRAN
  Starting Date ............ 08/28/2015 00:00:00
  Ending Date .............. 08/28/2015 23:40:00
  Antecedent Dry Days ...... 0.0
  Report Time Step ......... 00:01:00
  Wet Time Step ............ 00:01:00
  Dry Time Step ............ 00:01:00
  Routing Time Step ........ 5.00 sec
  Variable Time Step ....... YES
  Maximum Trials ........... 8
  Number of Threads ........ 1
  Head Tolerance ........... 0.001500 m
  
  
  **************************        Volume         Depth
  Runoff Quantity Continuity     hectare-m            mm
  **************************     ---------       -------
  Total Precipitation ......         3.860        21.421
  Evaporation Loss .........         0.000         0.000
  Infiltration Loss ........         0.000         0.000
  Surface Runoff ...........         3.876        21.511
  Final Storage ............         0.012         0.065
  Continuity Error (%) .....        -0.723
  
  
  **************************        Volume        Volume
  Flow Routing Continuity        hectare-m      10^6 ltr
  **************************     ---------     ---------
  Dry Weather Inflow .......         0.758         7.576
  Wet Weather Inflow .......         3.877        38.766
  Groundwater Inflow .......         0.000         0.000
  RDII Inflow ..............         0.000         0.000
  External Inflow ..........         0.000         0.000
  External Outflow .........         1.363        13.634
  Flooding Loss ............         2.601        26.007
  Evaporation Loss .........         0.000         0.000
  Exfiltration Loss ........         0.000         0.000
  Initial Stored Volume ....         0.000         0.000
  Final Stored Volume ......         0.605         6.046
  Continuity Error (%) .....         1.413
  
  
  *************************
  Highest Continuity Errors
  *************************
  Node T2 (15.29%)
  Node T3 (12.76%)
  Node T4 (6.12%)
  Node J12 (6.06%)
  Node T6 (1.64%)
  
  
  ***************************
  Time-Step Critical Elements
  ***************************
  None
  
  
  ********************************
  Highest Flow Instability Indexes
  ********************************
  All links are stable.
  
  
  *************************
  Routing Time Step Summary
  *************************
  Minimum Time Step           :     1.93 sec
  Average Time Step           :     5.00 sec
  Maximum Time Step           :     5.00 sec
  Percent in Steady State     :     0.00
  Average Iterations per Step :     2.10
  Percent Not Converging      :     0.47
  
  
  ***************************
  Subcatchment Runoff Summary
  ***************************
  
  ------------------------------------------------------------------------------------------------------------------------------
                            Total      Total      Total      Total     Imperv       Perv      Total       Total     Peak  Runoff
                           Precip      Runon       Evap      Infil     Runoff     Runoff     Runoff      Runoff   Runoff   Coeff
  Subcatchment                 mm         mm         mm         mm         mm         mm         mm    10^6 ltr      CMS
  ------------------------------------------------------------------------------------------------------------------------------
  SC01                      34.64       0.00       0.00       0.00      34.98       0.00      34.98       11.54    19.04   1.010
  SC02                      11.04       0.00       0.00       0.00      11.03       0.00      11.03        2.51     1.68   0.999
  SC03                      16.07       0.00       0.00       0.00      16.14       0.00      16.14        2.91     1.83   1.004
  SC04                      11.04       0.00       0.00       0.00      10.98       0.00      10.98        0.76     0.32   0.995
  SC05                      34.64       0.00       0.00       0.00      34.93       0.00      34.93        5.45     8.60   1.008
  SC06                      16.49       0.00       0.00       0.00      16.44       0.00      16.44        5.35     3.56   0.997
  SC07                      11.04       0.00       0.00       0.00      10.98       0.00      10.98        0.52     0.22   0.995
  SC08                      16.07       0.00       0.00       0.00      16.06       0.00      16.06        4.50     1.91   0.999
  SC09                      16.49       0.00       0.00       0.00      16.49       0.00      16.49        1.14     1.09   1.000
  SC010                     34.64       0.00       0.00       0.00      34.84       0.00      34.84        4.09     5.75   1.006
  
  
  ******************
  Node Depth Summary
  ******************
  
  ---------------------------------------------------------------------------------
                                 Average  Maximum  Maximum  Time of Max    Reported
                                   Depth    Depth      HGL   Occurrence   Max Depth
  Node                 Type       Meters   Meters   Meters  days hr:min      Meters
  ---------------------------------------------------------------------------------
  J1                   JUNCTION     0.08     7.00    41.00     0  04:35        7.00
  J3                   JUNCTION     0.09     0.12    18.12     0  05:01        0.12
  CSO7                 JUNCTION     0.10     1.20    35.20     0  04:26        1.20
  J5                   JUNCTION     0.04     0.20    32.20     0  04:52        0.20
  CSO9                 JUNCTION     0.11     2.00    42.00     0  04:35        2.00
  J8                   JUNCTION     0.08     0.61    36.61     0  04:41        0.61
  CSO8                 JUNCTION     0.14     2.00    34.00     0  04:16        2.00
  J10                  JUNCTION     0.06     0.42    29.42     0  04:27        0.42
  J13                  JUNCTION     0.04     0.32    29.32     0  04:31        0.32
  J15                  JUNCTION     0.16     3.00    18.00     0  04:40        3.00
  J16                  JUNCTION     0.05     1.15    31.15     0  04:41        1.01
  CSO10                JUNCTION     0.09     1.00    31.00     0  04:20        1.00
  J12                  JUNCTION     0.78     1.04    27.04     0  06:13        1.04
  J4                   JUNCTION     0.10     1.39    34.39     0  04:30        0.75
  J6                   JUNCTION     0.06     0.07    25.07     0  06:39        0.07
  J2                   JUNCTION     0.06     0.08    25.08     0  05:27        0.08
  J19                  JUNCTION     0.13     0.17     8.17     0  04:36        0.17
  J9                   JUNCTION     0.09     0.11    29.11     0  06:31        0.11
  J14                  JUNCTION     0.09     0.14    20.14     0  05:00        0.14
  J17                  JUNCTION     0.06     0.08    20.08     0  06:32        0.08
  J7                   JUNCTION     0.05     0.23    39.23     0  05:08        0.23
  J11                  JUNCTION     0.05     0.30    31.30     0  05:06        0.30
  J18                  JUNCTION     0.03     0.16    29.16     0  05:03        0.16
  Out_to_WWTP          OUTFALL      0.12     0.17     6.17     0  05:55        0.17
  T5                   STORAGE      2.65     5.00    32.00     0  04:36        5.00
  T4                   STORAGE      2.85     5.00    32.00     0  05:54        5.00
  T6                   STORAGE      2.74     5.00    36.00     0  04:45        5.00
  T3                   STORAGE      3.97     5.00    27.00     0  06:12        5.00
  T2                   STORAGE      3.25     5.00    26.00     0  05:07        5.00
  T1                   STORAGE      2.21     5.00    15.00     0  04:35        5.00
  
  
  *******************
  Node Inflow Summary
  *******************
  
  -------------------------------------------------------------------------------------------------
                                  Maximum  Maximum                  Lateral       Total        Flow
                                  Lateral    Total  Time of Max      Inflow      Inflow     Balance
                                   Inflow   Inflow   Occurrence      Volume      Volume       Error
  Node                 Type           CMS      CMS  days hr:min    10^6 ltr    10^6 ltr     Percent
  -------------------------------------------------------------------------------------------------
  J1                   JUNCTION     8.609    8.609     0  04:41        6.54        6.54      -0.343
  J3                   JUNCTION     0.000    0.156     0  05:00           0        8.07       0.315
  CSO7                 JUNCTION     0.224    0.224     0  04:51        1.09        1.09       0.011
  J5                   JUNCTION     0.321    0.394     0  04:51        1.01        1.94      -0.076
  CSO9                 JUNCTION     1.095    1.095     0  04:41        1.52        1.52      -0.030
  J8                   JUNCTION     3.572    3.690     0  04:41        7.18        8.08      -0.100
  CSO8                 JUNCTION     1.907    1.907     0  04:46        4.94        4.94      -0.028
  J10                  JUNCTION     1.840    2.317     0  04:26        3.66        6.97      -0.183
  J13                  JUNCTION     1.687    1.687     0  04:31        3.42        3.42      -0.347
  J15                  JUNCTION     0.000   19.392     0  04:41           0        23.9       0.048
  J16                  JUNCTION    19.051   19.051     0  04:41        12.6        12.6      -0.045
  CSO10                JUNCTION     5.750    5.750     0  04:41        4.36        4.36      -0.018
  J12                  JUNCTION     0.000    1.960     0  04:27           0        11.4       6.446
  J4                   JUNCTION     0.000    0.085     0  04:28           0       0.935       0.053
  J6                   JUNCTION     0.000    0.028     0  05:54           0        1.61       0.181
  J2                   JUNCTION     0.000    0.039     0  04:36           0        2.19       0.139
  J19                  JUNCTION     0.000    0.271     0  04:35           0        13.6       0.055
  J9                   JUNCTION     0.000    0.075     0  04:45           0        4.25       0.202
  J14                  JUNCTION     0.000    0.106     0  05:00           0        4.28       0.100
  J17                  JUNCTION     0.000    0.033     0  05:07           0        2.08       0.300
  J7                   JUNCTION     0.000    0.127     0  05:08           0       0.901       0.074
  J11                  JUNCTION     0.000    0.486     0  05:06           0        3.32       0.133
  J18                  JUNCTION     0.000    0.202     0  05:03           0         1.2      -0.054
  Out_to_WWTP          OUTFALL      0.000    0.271     0  04:36           0        13.6       0.000
  T5                   STORAGE      0.000    4.674     0  04:42           0        6.16       0.960
  T4                   STORAGE      0.000    0.363     0  04:52           0        1.94       6.519
  T6                   STORAGE      0.000    3.396     0  04:42           0        8.09       1.668
  T3                   STORAGE      0.000    1.735     0  04:28           0        10.7      14.624
  T2                   STORAGE      0.000    1.539     0  04:31           0        3.43      18.052
  T1                   STORAGE      0.000    7.012     0  04:44           0        22.6       0.879
  
  
  **********************
  Node Surcharge Summary
  **********************
  
  Surcharging occurs when water rises above the top of the highest conduit.
  ---------------------------------------------------------------------
                                               Max. Height   Min. Depth
                                   Hours       Above Crown    Below Rim
  Node                 Type      Surcharged         Meters       Meters
  ---------------------------------------------------------------------
  J1                   JUNCTION        0.17          6.000        0.000
  CSO7                 JUNCTION        0.86          0.945        0.000
  CSO9                 JUNCTION        0.71          1.682        0.000
  CSO8                 JUNCTION        1.21          1.547        0.000
  J15                  JUNCTION        0.13          1.000        0.000
  CSO10                JUNCTION        0.85          0.560        0.000
  J4                   JUNCTION        0.82          1.092        0.608
  
  
  *********************
  Node Flooding Summary
  *********************
  
  Flooding refers to all water that overflows a node, whether it ponds or not.
  --------------------------------------------------------------------------
                                                             Total   Maximum
                                 Maximum   Time of Max       Flood    Ponded
                        Hours       Rate    Occurrence      Volume     Depth
  Node                 Flooded       CMS   days hr:min    10^6 ltr    Meters
  --------------------------------------------------------------------------
  J1                      0.06     4.018      0  04:41       0.401     5.000
  CSO7                    0.74     0.152      0  04:51       0.152     0.000
  CSO9                    0.56     0.969      0  04:41       0.619     0.000
  CSO8                    0.92     1.421      0  04:46       1.629     0.000
  J15                     0.09    12.470      0  04:41       1.298     0.000
  CSO10                   0.80     5.547      0  04:41       3.163     0.000
  T5                      1.16     4.635      0  04:42       3.813     0.000
  T4                      1.03     0.035      0  06:09       0.063     0.000
  T6                      3.25     2.599      0  04:46       3.602     0.000
  T3                     11.75     0.952      0  06:15       2.339     0.000
  T2                      1.69     0.273      0  05:07       0.305     0.000
  T1                      1.18     6.741      0  04:44       8.623     0.000
  
  
  **********************
  Storage Volume Summary
  **********************
  
  --------------------------------------------------------------------------------------------------
                         Average     Avg  Evap Exfil       Maximum     Max    Time of Max    Maximum
                          Volume    Pcnt  Pcnt  Pcnt        Volume    Pcnt     Occurrence    Outflow
  Storage Unit           1000 m3    Full  Loss  Loss       1000 m3    Full    days hr:min        CMS
  --------------------------------------------------------------------------------------------------
  T5                       0.265      53     0     0         0.500     100       0  04:36      0.039
  T4                       0.285      57     0     0         0.500     100       0  05:54      0.028
  T6                       0.328      55     0     0         0.600     100       0  04:45      0.075
  T3                       2.065      79     0     0         2.600     100       0  06:12      0.323
  T2                       0.649      65     0     0         1.000     100       0  05:07      0.033
  T1                       0.310      44     0     0         0.700     100       0  04:35      0.271
  
  
  ***********************
  Outfall Loading Summary
  ***********************
  
  -----------------------------------------------------------
                         Flow       Avg       Max       Total
                         Freq      Flow      Flow      Volume
  Outfall Node           Pcnt       CMS       CMS    10^6 ltr
  -----------------------------------------------------------
  Out_to_WWTP           99.43     0.161     0.271      13.634
  -----------------------------------------------------------
  System                99.43     0.161     0.271      13.634
  
  
  ********************
  Link Flow Summary
  ********************
  
  -----------------------------------------------------------------------------
                                 Maximum  Time of Max   Maximum    Max/    Max/
                                  |Flow|   Occurrence   |Veloc|    Full    Full
  Link                 Type          CMS  days hr:min     m/sec    Flow   Depth
  -----------------------------------------------------------------------------
  C1                   CONDUIT     0.039     0  05:27      1.09    0.01    0.10
  C6                   CONDUIT     0.074     0  04:51      1.29    1.17    0.84
  C2                   CONDUIT     0.028     0  06:39      1.01    0.03    0.16
  C9                   CONDUIT     0.127     0  05:08      1.17    0.43    0.73
  C16                  CONDUIT     0.490     0  04:41      1.83    0.05    0.18
  C3                   CONDUIT     0.105     0  05:00      1.72    0.04    0.13
  C19                  CONDUIT     0.033     0  06:32      0.67    0.01    0.53
  C11                  CONDUIT     0.153     0  05:01      1.42    0.01    0.53
  C20                  CONDUIT    19.056     0  04:41      9.40    0.60    0.79
  C22                  CONDUIT     0.202     0  05:03      1.54    0.09    0.60
  C12                  CONDUIT     0.075     0  06:31      0.57    0.01    0.29
  C17                  CONDUIT     1.949     0  04:27      4.12    0.10    0.33
  C10                  CONDUIT     3.396     0  04:42      3.01    0.35    0.70
  C13                  CONDUIT     1.735     0  04:28      3.40    0.10    0.76
  C18                  CONDUIT     1.539     0  04:31      1.87    0.06    0.58
  C23                  CONDUIT     7.012     0  04:44      3.97    0.77    1.00
  C4                   CONDUIT     4.674     0  04:42      5.95    1.13    1.00
  C7                   CONDUIT     0.363     0  04:52      1.13    0.09    0.60
  C14                  CONDUIT     0.271     0  04:36      2.08    0.02    0.09
  C5                   CONDUIT     0.085     0  04:28      1.70    1.45    1.00
  C8                   CONDUIT     0.127     0  05:08      1.86    1.60    0.86
  C15                  CONDUIT     0.486     0  05:06      3.99    1.55    0.83
  C21                  CONDUIT     0.202     0  05:03      1.97    1.16    0.69
  V4                   ORIFICE     0.028     0  05:54                      0.35
  V5                   ORIFICE     0.039     0  04:36                      1.00
  V1                   ORIFICE     0.271     0  04:35                      1.00
  V6                   ORIFICE     0.075     0  04:45                      0.43
  V3                   ORIFICE     0.106     0  05:00                      0.65
  V2                   ORIFICE     0.033     0  05:07                      0.24
  
  
  ***************************
  Flow Classification Summary
  ***************************
  
  -------------------------------------------------------------------------------------
                      Adjusted    ---------- Fraction of Time in Flow Class ---------- 
                       /Actual         Up    Down  Sub   Sup   Up    Down  Norm  Inlet 
  Conduit               Length    Dry  Dry   Dry   Crit  Crit  Crit  Crit  Ltd   Ctrl  
  -------------------------------------------------------------------------------------
  C1                      1.00   0.00  0.00  0.00  0.15  0.85  0.00  0.00  0.96  0.00
  C6                      1.00   0.00  0.00  0.00  0.05  0.95  0.00  0.00  0.00  0.00
  C2                      1.00   0.00  0.00  0.00  0.17  0.83  0.00  0.00  0.98  0.00
  C9                      1.00   0.00  0.00  0.00  1.00  0.00  0.00  0.00  1.00  0.00
  C16                     1.00   0.00  0.17  0.00  0.65  0.17  0.00  0.00  0.53  0.00
  C3                      1.00   0.00  0.00  0.00  0.03  0.96  0.00  0.00  0.60  0.00
  C19                     1.00   0.00  0.00  0.00  1.00  0.00  0.00  0.00  1.00  0.00
  C11                     1.00   0.00  0.00  0.00  0.09  0.91  0.00  0.00  1.00  0.00
  C20                     1.00   0.00  0.00  0.00  0.91  0.09  0.00  0.00  0.99  0.00
  C22                     1.00   0.00  0.00  0.00  0.98  0.02  0.00  0.00  1.00  0.00
  C12                     1.00   0.00  0.00  0.00  0.88  0.12  0.00  0.00  0.97  0.00
  C17                     1.00   0.00  0.00  0.00  0.94  0.06  0.00  0.00  0.98  0.00
  C10                     1.00   0.00  0.00  0.00  0.83  0.17  0.00  0.00  0.97  0.00
  C13                     1.00   0.00  0.00  0.00  0.81  0.19  0.00  0.00  0.13  0.00
  C18                     1.00   0.00  0.00  0.00  0.86  0.14  0.00  0.00  0.98  0.00
  C23                     1.00   0.00  0.00  0.00  0.81  0.19  0.00  0.00  0.94  0.00
  C4                      1.00   0.00  0.00  0.00  0.82  0.18  0.00  0.00  0.96  0.00
  C7                      1.00   0.00  0.00  0.00  0.95  0.05  0.00  0.00  0.97  0.00
  C14                     1.00   0.00  0.00  0.00  0.00  1.00  0.00  0.00  0.66  0.00
  C5                      1.00   0.00  0.00  0.00  0.95  0.05  0.00  0.00  0.95  0.00
  C8                      1.00   0.00  0.00  0.00  0.24  0.76  0.00  0.00  0.01  0.00
  C15                     1.00   0.17  0.00  0.00  0.02  0.80  0.00  0.00  0.03  0.00
  C21                     1.00   0.00  0.00  0.00  0.00  1.00  0.00  0.00  0.00  0.00
  
  
  *************************
  Conduit Surcharge Summary
  *************************
  
  ----------------------------------------------------------------------------
                                                           Hours        Hours 
                         --------- Hours Full --------   Above Full   Capacity
  Conduit                Both Ends  Upstream  Dnstream   Normal Flow   Limited
  ----------------------------------------------------------------------------
  C6                          0.01      0.82      0.01      0.73         0.01
  C9                          0.01      0.01      0.13      0.01         0.01
  C19                         0.01      0.01      0.33      0.01         0.01
  C11                         0.01      0.01      0.13      0.01         0.01
  C20                         0.01      0.01      0.13      0.01         0.01
  C22                         0.01      0.01      0.36      0.01         0.01
  C10                         0.01      0.01     16.95      0.01         0.01
  C13                         0.01      0.01     18.98      0.01         0.01
  C18                         0.01      0.01     19.04      0.01         0.01
  C23                         0.26      0.26     17.32      0.01         0.01
  C4                          0.17      0.17     19.23      0.07         0.07
  C7                          0.01      0.01     19.06      0.01         0.01
  C5                          0.82      0.86      0.91      0.85         0.79
  C8                          0.01      0.71      0.01      0.72         0.01
  C15                         0.01      1.21      0.01      1.24         0.01
  C21                         0.01      0.85      0.01      0.83         0.01
  

  Analysis begun on:  Mon Sep 20 17:27:50 2021
  Analysis ended on:  Mon Sep 20 17:27:50 2021
  Total elapsed time: < 1 sec