
  EPA STORM WATER MANAGEMENT MODEL - VERSION 5.1 (Build 5.3.0.dev0)
  --------------------------------------------------------------

  WARNING 09: time series interval greater than recording interval for Rain Gage RG1
  WARNING 09: time series interval greater than recording interval for Rain Gage RG2
  WARNING 09: time series interval greater than recording interval for Rain Gage RG3
  WARNING 09: time series interval greater than recording interval for Rain Gage RG4
  
  *********************************************************
  NOTE: The summary statistics displayed in this report are
  based on results found at every computational time step,  
  not just on results from each reporting time step.
  *********************************************************
  
  ****************
  Analysis Options
  ****************
  Flow Units ............... CMS
  Process Models:
    Rainfall/Runoff ........ YES
    RDII ................... NO
    Snowmelt ............... NO
    Groundwater ............ NO
    Flow Routing ........... YES
    Ponding Allowed ........ YES
    Water Quality .......... NO
  Infiltration Method ...... HORTON
  Flow Routing Method ...... DYNWAVE
  Surcharge Method ......... EXTRAN
  Starting Date ............ 08/28/2015 00:00:00
  Ending Date .............. 08/28/2015 23:40:00
  Antecedent Dry Days ...... 0.0
  Report Time Step ......... 00:01:00
  Wet Time Step ............ 00:01:00
  Dry Time Step ............ 00:01:00
  Routing Time Step ........ 5.00 sec
  Variable Time Step ....... YES
  Maximum Trials ........... 8
  Number of Threads ........ 1
  Head Tolerance ........... 0.001500 m
  
  
  **************************        Volume         Depth
  Runoff Quantity Continuity     hectare-m            mm
  **************************     ---------       -------
  Total Precipitation ......         3.138        17.413
  Evaporation Loss .........         0.000         0.000
  Infiltration Loss ........         0.000         0.000
  Surface Runoff ...........         2.620        14.538
  Final Storage ............         0.537         2.980
  Continuity Error (%) .....        -0.599
  
  
  **************************        Volume        Volume
  Flow Routing Continuity        hectare-m      10^6 ltr
  **************************     ---------     ---------
  Dry Weather Inflow .......         0.758         7.576
  Wet Weather Inflow .......         2.602        26.024
  Groundwater Inflow .......         0.000         0.000
  RDII Inflow ..............         0.000         0.000
  External Inflow ..........         0.000         0.000
  External Outflow .........         1.132        11.316
  Flooding Loss ............         0.974         9.740
  Evaporation Loss .........         0.000         0.000
  Exfiltration Loss ........         0.000         0.000
  Initial Stored Volume ....         0.000         0.000
  Final Stored Volume ......         0.942         9.422
  Continuity Error (%) .....         9.290
  
  
  *************************
  Highest Continuity Errors
  *************************
  Node T2 (24.13%)
  Node T4 (16.89%)
  Node T3 (14.23%)
  Node T5 (13.69%)
  Node T6 (11.00%)
  
  
  ***************************
  Time-Step Critical Elements
  ***************************
  None
  
  
  ********************************
  Highest Flow Instability Indexes
  ********************************
  All links are stable.
  
  
  *************************
  Routing Time Step Summary
  *************************
  Minimum Time Step           :     4.50 sec
  Average Time Step           :     5.00 sec
  Maximum Time Step           :     5.00 sec
  Percent in Steady State     :     0.00
  Average Iterations per Step :     2.14
  Percent Not Converging      :     0.48
  
  
  ***************************
  Subcatchment Runoff Summary
  ***************************
  
  ------------------------------------------------------------------------------------------------------------------------------
                            Total      Total      Total      Total     Imperv       Perv      Total       Total     Peak  Runoff
                           Precip      Runon       Evap      Infil     Runoff     Runoff     Runoff      Runoff   Runoff   Coeff
  Subcatchment                 mm         mm         mm         mm         mm         mm         mm    10^6 ltr      CMS
  ------------------------------------------------------------------------------------------------------------------------------
  SC01                      19.30       0.00       0.00       0.00      16.69       0.00      16.69        5.51     2.39   0.865
  SC02                      15.38       0.00       0.00       0.00      13.44       0.00      13.44        3.06     0.73   0.874
  SC03                      15.15       0.00       0.00       0.00      13.81       0.00      13.81        2.49     0.74   0.912
  SC04                      15.38       0.00       0.00       0.00      12.12       0.00      12.12        0.84     0.17   0.788
  SC05                      19.30       0.00       0.00       0.00      16.50       0.00      16.50        2.57     1.08   0.855
  SC06                      18.94       0.00       0.00       0.00      14.22       0.00      14.22        4.63     1.21   0.751
  SC07                      15.38       0.00       0.00       0.00      12.13       0.00      12.13        0.58     0.12   0.789
  SC08                      15.15       0.00       0.00       0.00      12.81       0.00      12.81        3.59     0.78   0.846
  SC09                      18.94       0.00       0.00       0.00      15.40       0.00      15.40        1.06     0.32   0.813
  SC010                     19.30       0.00       0.00       0.00      16.00       0.00      16.00        1.88     0.71   0.829
  
  
  ******************
  Node Depth Summary
  ******************
  
  ---------------------------------------------------------------------------------
                                 Average  Maximum  Maximum  Time of Max    Reported
                                   Depth    Depth      HGL   Occurrence   Max Depth
  Node                 Type       Meters   Meters   Meters  days hr:min      Meters
  ---------------------------------------------------------------------------------
  J1                   JUNCTION     0.06     0.33    34.33     0  23:36        0.33
  J3                   JUNCTION     0.08     0.11    18.11     0  23:40        0.11
  CSO7                 JUNCTION     0.10     1.20    35.20     0  22:56        1.20
  J5                   JUNCTION     0.05     0.16    32.16     0  23:37        0.16
  CSO9                 JUNCTION     0.12     2.00    42.00     0  23:11        2.00
  J8                   JUNCTION     0.08     0.36    36.36     0  23:37        0.36
  CSO8                 JUNCTION     0.12     2.00    34.00     0  22:50        2.00
  J10                  JUNCTION     0.07     0.30    29.30     0  23:37        0.30
  J13                  JUNCTION     0.05     0.22    29.22     0  23:01        0.22
  J15                  JUNCTION     0.13     0.47    15.47     0  23:39        0.47
  J16                  JUNCTION     0.05     0.35    30.35     0  23:36        0.35
  CSO10                JUNCTION     0.10     1.00    31.00     0  23:01        1.00
  J12                  JUNCTION     0.35     1.04    27.04     0  22:52        1.04
  J4                   JUNCTION     0.10     1.42    34.42     0  23:02        0.75
  J6                   JUNCTION     0.05     0.07    25.07     0  15:40        0.07
  J2                   JUNCTION     0.05     0.08    25.08     0  15:19        0.08
  J19                  JUNCTION     0.11     0.17     8.17     0  23:16        0.17
  J9                   JUNCTION     0.08     0.11    29.11     0  14:53        0.11
  J14                  JUNCTION     0.08     0.12    20.12     0  13:10        0.12
  J17                  JUNCTION     0.05     0.08    20.08     0  23:40        0.08
  J7                   JUNCTION     0.06     0.23    39.23     0  23:40        0.23
  J11                  JUNCTION     0.06     0.29    31.29     0  23:07        0.29
  J18                  JUNCTION     0.04     0.16    29.16     0  23:40        0.16
  Out_to_WWTP          OUTFALL      0.11     0.17     6.17     0  16:04        0.17
  T5                   STORAGE      2.05     5.00    32.00     0  14:35        5.00
  T4                   STORAGE      2.15     5.00    32.00     0  14:57        5.00
  T6                   STORAGE      2.18     5.00    36.00     0  13:34        5.00
  T3                   STORAGE      2.20     5.00    27.00     0  22:47        5.00
  T2                   STORAGE      1.84     5.00    26.00     0  23:16        5.00
  T1                   STORAGE      1.87     5.00    15.00     0  13:47        5.00
  
  
  *******************
  Node Inflow Summary
  *******************
  
  -------------------------------------------------------------------------------------------------
                                  Maximum  Maximum                  Lateral       Total        Flow
                                  Lateral    Total  Time of Max      Inflow      Inflow     Balance
                                   Inflow   Inflow   Occurrence      Volume      Volume       Error
  Node                 Type           CMS      CMS  days hr:min    10^6 ltr    10^6 ltr     Percent
  -------------------------------------------------------------------------------------------------
  J1                   JUNCTION     1.079    1.079     0  23:36        3.65        3.65       0.757
  J3                   JUNCTION     0.000    0.127     0  23:40           0         6.2       0.464
  CSO7                 JUNCTION     0.120    0.120     0  23:36        1.14        1.14       0.232
  J5                   JUNCTION     0.173    0.244     0  23:36        1.08        2.17       0.836
  CSO9                 JUNCTION     0.318    0.318     0  23:36        1.44        1.44       0.293
  J8                   JUNCTION     1.218    1.346     0  23:36        6.43        7.75       1.216
  CSO8                 JUNCTION     0.783    0.783     0  23:36        4.02        4.02       0.198
  J10                  JUNCTION     0.743    1.140     0  22:56        3.22        7.03       1.465
  J13                  JUNCTION     0.730    0.730     0  23:36        3.95        3.95       0.697
  J15                  JUNCTION     0.000    2.537     0  23:36           0          16       2.430
  J16                  JUNCTION     2.396    2.396     0  23:36        6.54        6.54       0.852
  CSO10                JUNCTION     0.715    0.715     0  23:36        2.14        2.14       0.382
  J12                  JUNCTION     0.000    1.074     0  23:37           0        10.5       8.626
  J4                   JUNCTION     0.000    0.081     0  23:00           0        1.11       1.607
  J6                   JUNCTION     0.000    0.028     0  14:57           0        1.16       0.367
  J2                   JUNCTION     0.000    0.039     0  14:35           0        1.77       0.324
  J19                  JUNCTION     0.000    0.271     0  13:47           0        11.3       0.112
  J9                   JUNCTION     0.000    0.075     0  13:34           0        3.55       0.490
  J14                  JUNCTION     0.000    0.080     0  13:10           0        3.28       0.133
  J17                  JUNCTION     0.000    0.033     0  23:16           0         1.4       0.454
  J7                   JUNCTION     0.000    0.127     0  23:40           0        1.35       1.924
  J11                  JUNCTION     0.000    0.486     0  23:36           0        3.89       2.031
  J18                  JUNCTION     0.000    0.202     0  23:40           0        1.95       1.199
  Out_to_WWTP          OUTFALL      0.000    0.271     0  23:16           0        11.3       0.000
  T5                   STORAGE      0.000    0.980     0  23:36           0        3.62      15.864
  T4                   STORAGE      0.000    0.230     0  23:37           0        2.15      20.319
  T6                   STORAGE      0.000    1.249     0  23:37           0        7.66      12.364
  T3                   STORAGE      0.000    1.182     0  23:40           0         9.7      16.596
  T2                   STORAGE      0.000    0.658     0  23:01           0        3.92      31.805
  T1                   STORAGE      0.000    1.953     0  23:39           0        15.6       5.623
  
  
  **********************
  Node Surcharge Summary
  **********************
  
  Surcharging occurs when water rises above the top of the highest conduit.
  ---------------------------------------------------------------------
                                               Max. Height   Min. Depth
                                   Hours       Above Crown    Below Rim
  Node                 Type      Surcharged         Meters       Meters
  ---------------------------------------------------------------------
  CSO7                 JUNCTION        0.73          0.945        0.000
  CSO9                 JUNCTION        0.87          1.682        0.000
  CSO8                 JUNCTION        0.82          1.547        0.000
  CSO10                JUNCTION        0.64          0.560        0.000
  J4                   JUNCTION        0.63          1.119        0.581
  
  
  *********************
  Node Flooding Summary
  *********************
  
  Flooding refers to all water that overflows a node, whether it ponds or not.
  --------------------------------------------------------------------------
                                                             Total   Maximum
                                 Maximum   Time of Max       Flood    Ponded
                        Hours       Rate    Occurrence      Volume     Depth
  Node                 Flooded       CMS   days hr:min    10^6 ltr    Meters
  --------------------------------------------------------------------------
  CSO7                    0.57     0.049      0  23:36       0.027     0.000
  CSO9                    0.31     0.191      0  23:36       0.082     0.000
  CSO8                    0.37     0.297      0  23:36       0.122     0.000
  CSO10                   0.46     0.513      0  23:36       0.175     0.000
  T5                      1.70     0.940      0  23:36       0.851     0.000
  T4                      0.88     0.202      0  23:37       0.132     0.000
  T6                      3.21     1.173      0  23:37       2.675     0.000
  T3                      0.87     1.121      0  23:40       2.369     0.000
  T2                      0.40     0.623      0  23:37       0.581     0.000
  T1                      2.55     1.682      0  23:39       2.740     0.000
  
  
  **********************
  Storage Volume Summary
  **********************
  
  --------------------------------------------------------------------------------------------------
                         Average     Avg  Evap Exfil       Maximum     Max    Time of Max    Maximum
                          Volume    Pcnt  Pcnt  Pcnt        Volume    Pcnt     Occurrence    Outflow
  Storage Unit           1000 m3    Full  Loss  Loss       1000 m3    Full    days hr:min        CMS
  --------------------------------------------------------------------------------------------------
  T5                       0.205      41     0     0         0.500     100       0  14:35      0.039
  T4                       0.215      43     0     0         0.500     100       0  14:57      0.028
  T6                       0.262      44     0     0         0.600     100       0  13:34      0.075
  T3                       1.142      44     0     0         2.600     100       0  22:47      0.093
  T2                       0.368      37     0     0         1.000     100       0  23:16      0.033
  T1                       0.262      37     0     0         0.700     100       0  13:47      0.271
  
  
  ***********************
  Outfall Loading Summary
  ***********************
  
  -----------------------------------------------------------
                         Flow       Avg       Max       Total
                         Freq      Flow      Flow      Volume
  Outfall Node           Pcnt       CMS       CMS    10^6 ltr
  -----------------------------------------------------------
  Out_to_WWTP           99.43     0.134     0.271      11.316
  -----------------------------------------------------------
  System                99.43     0.134     0.271      11.316
  
  
  ********************
  Link Flow Summary
  ********************
  
  -----------------------------------------------------------------------------
                                 Maximum  Time of Max   Maximum    Max/    Max/
                                  |Flow|   Occurrence   |Veloc|    Full    Full
  Link                 Type          CMS  days hr:min     m/sec    Flow   Depth
  -----------------------------------------------------------------------------
  C1                   CONDUIT     0.039     0  15:19      1.04    0.01    0.10
  C6                   CONDUIT     0.072     0  23:37      1.27    1.14    0.77
  C2                   CONDUIT     0.028     0  15:37      1.01    0.03    0.16
  C9                   CONDUIT     0.127     0  23:40      1.29    0.43    0.59
  C16                  CONDUIT     0.487     0  23:37      1.76    0.05    0.15
  C3                   CONDUIT     0.080     0  13:10      1.56    0.03    0.12
  C19                  CONDUIT     0.033     0  23:40      0.66    0.01    0.27
  C11                  CONDUIT     0.127     0  23:40      1.47    0.01    0.15
  C20                  CONDUIT     2.174     0  23:36      5.20    0.07    0.20
  C22                  CONDUIT     0.202     0  23:40      1.53    0.09    0.40
  C12                  CONDUIT     0.075     0  14:53      0.77    0.01    0.28
  C17                  CONDUIT     0.998     0  23:37      2.27    0.05    0.33
  C10                  CONDUIT     1.249     0  23:37      1.08    0.13    0.62
  C13                  CONDUIT     1.182     0  23:40      0.85    0.07    0.76
  C18                  CONDUIT     0.658     0  23:01      1.01    0.02    0.55
  C23                  CONDUIT     1.953     0  23:39      1.58    0.22    0.66
  C4                   CONDUIT     0.980     0  23:36      1.76    0.24    0.67
  C7                   CONDUIT     0.230     0  23:37      0.82    0.06    0.58
  C14                  CONDUIT     0.271     0  23:16      2.08    0.02    0.09
  C5                   CONDUIT     0.081     0  23:00      1.70    1.39    1.00
  C8                   CONDUIT     0.127     0  23:40      1.78    1.60    0.86
  C15                  CONDUIT     0.486     0  23:36      3.64    1.54    0.82
  C21                  CONDUIT     0.202     0  23:40      1.87    1.16    0.69
  V4                   ORIFICE     0.028     0  14:57                      0.35
  V5                   ORIFICE     0.039     0  14:35                      1.00
  V1                   ORIFICE     0.271     0  13:47                      1.00
  V6                   ORIFICE     0.075     0  13:34                      0.43
  V3                   ORIFICE     0.080     0  13:10                      0.65
  V2                   ORIFICE     0.033     0  23:16                      0.24
  
  
  ***************************
  Flow Classification Summary
  ***************************
  
  -------------------------------------------------------------------------------------
                      Adjusted    ---------- Fraction of Time in Flow Class ---------- 
                       /Actual         Up    Down  Sub   Sup   Up    Down  Norm  Inlet 
  Conduit               Length    Dry  Dry   Dry   Crit  Crit  Crit  Crit  Ltd   Ctrl  
  -------------------------------------------------------------------------------------
  C1                      1.00   0.00  0.00  0.00  0.10  0.90  0.00  0.00  0.96  0.00
  C6                      1.00   0.00  0.00  0.00  0.04  0.96  0.00  0.00  0.00  0.00
  C2                      1.00   0.00  0.00  0.00  0.52  0.48  0.00  0.00  0.98  0.00
  C9                      1.00   0.00  0.00  0.00  1.00  0.00  0.00  0.00  1.00  0.00
  C16                     1.00   0.00  0.25  0.00  0.45  0.30  0.00  0.00  0.38  0.00
  C3                      1.00   0.00  0.00  0.00  0.03  0.96  0.00  0.00  0.49  0.00
  C19                     1.00   0.00  0.00  0.00  1.00  0.00  0.00  0.00  1.00  0.00
  C11                     1.00   0.00  0.00  0.00  0.23  0.76  0.00  0.00  1.00  0.00
  C20                     1.00   0.00  0.00  0.00  0.71  0.29  0.00  0.00  0.99  0.00
  C22                     1.00   0.00  0.00  0.00  0.93  0.07  0.00  0.00  1.00  0.00
  C12                     1.00   0.00  0.00  0.00  0.67  0.33  0.00  0.00  1.00  0.00
  C17                     1.00   0.00  0.00  0.00  0.62  0.38  0.00  0.00  0.99  0.00
  C10                     1.00   0.00  0.00  0.00  0.83  0.17  0.00  0.00  0.98  0.00
  C13                     1.00   0.00  0.00  0.00  0.77  0.23  0.00  0.00  0.54  0.00
  C18                     1.00   0.00  0.00  0.00  0.90  0.10  0.00  0.00  0.98  0.00
  C23                     1.00   0.00  0.00  0.00  0.77  0.23  0.00  0.00  0.96  0.00
  C4                      1.00   0.00  0.00  0.00  0.82  0.18  0.00  0.00  0.98  0.00
  C7                      1.00   0.00  0.00  0.00  0.95  0.05  0.00  0.00  0.97  0.00
  C14                     1.00   0.00  0.00  0.00  0.00  1.00  0.00  0.00  0.41  0.00
  C5                      1.00   0.00  0.00  0.00  0.93  0.07  0.00  0.00  0.95  0.00
  C8                      1.00   0.00  0.00  0.00  0.22  0.78  0.00  0.00  0.01  0.00
  C15                     1.00   0.25  0.00  0.00  0.00  0.75  0.00  0.00  0.01  0.00
  C21                     1.00   0.00  0.00  0.00  0.00  1.00  0.00  0.00  0.00  0.00
  
  
  *************************
  Conduit Surcharge Summary
  *************************
  
  ----------------------------------------------------------------------------
                                                           Hours        Hours 
                         --------- Hours Full --------   Above Full   Capacity
  Conduit                Both Ends  Upstream  Dnstream   Normal Flow   Limited
  ----------------------------------------------------------------------------
  C6                          0.01      0.63      0.01      0.63         0.01
  C10                         0.01      0.01     11.61      0.01         0.01
  C13                         0.01      0.01     10.59      0.01         0.01
  C18                         0.01      0.01     10.63      0.01         0.01
  C23                         0.01      0.01     11.57      0.01         0.01
  C4                          0.01      0.01     11.88      0.01         0.01
  C7                          0.01      0.01     12.49      0.01         0.01
  C5                          0.66      0.73      0.66      0.73         0.66
  C8                          0.01      0.87      0.01      0.86         0.01
  C15                         0.01      0.82      0.01      0.82         0.01
  C21                         0.01      0.64      0.01      0.61         0.01
  

  Analysis begun on:  Mon Sep 20 18:15:06 2021
  Analysis ended on:  Mon Sep 20 18:15:07 2021
  Total elapsed time: 00:00:01