
  EPA STORM WATER MANAGEMENT MODEL - VERSION 5.1 (Build 5.3.0.dev0)
  --------------------------------------------------------------

  
  *********************************************************
  NOTE: The summary statistics displayed in this report are
  based on results found at every computational time step,  
  not just on results from each reporting time step.
  *********************************************************
  
  ****************
  Analysis Options
  ****************
  Flow Units ............... CMS
  Process Models:
    Rainfall/Runoff ........ YES
    RDII ................... NO
    Snowmelt ............... NO
    Groundwater ............ NO
    Flow Routing ........... YES
    Ponding Allowed ........ YES
    Water Quality .......... NO
  Infiltration Method ...... HORTON
  Flow Routing Method ...... DYNWAVE
  Surcharge Method ......... EXTRAN
  Starting Date ............ 08/28/2015 08:00:00
  Ending Date .............. 08/28/2015 15:50:00
  Antecedent Dry Days ...... 0.0
  Report Time Step ......... 00:01:00
  Wet Time Step ............ 00:01:00
  Dry Time Step ............ 00:01:00
  Routing Time Step ........ 5.00 sec
  Variable Time Step ....... YES
  Maximum Trials ........... 8
  Number of Threads ........ 1
  Head Tolerance ........... 0.001500 m
  
  
  **************************        Volume         Depth
  Runoff Quantity Continuity     hectare-m            mm
  **************************     ---------       -------
  Total Precipitation ......         2.287        12.691
  Evaporation Loss .........         0.000         0.000
  Infiltration Loss ........         0.000         0.000
  Surface Runoff ...........         2.264        12.561
  Final Storage ............         0.024         0.131
  Continuity Error (%) .....        -0.012
  
  
  **************************        Volume        Volume
  Flow Routing Continuity        hectare-m      10^6 ltr
  **************************     ---------     ---------
  Dry Weather Inflow .......         0.396         3.955
  Wet Weather Inflow .......         2.263        22.635
  Groundwater Inflow .......         0.000         0.000
  RDII Inflow ..............         0.000         0.000
  External Inflow ..........         0.000         0.000
  External Outflow .........         0.584         5.839
  Flooding Loss ............         1.031        10.306
  Evaporation Loss .........         0.000         0.000
  Exfiltration Loss ........         0.000         0.000
  Initial Stored Volume ....         0.000         0.000
  Final Stored Volume ......         0.804         8.041
  Continuity Error (%) .....         9.042
  
  
  *************************
  Highest Continuity Errors
  *************************
  Node T2 (26.23%)
  Node T3 (19.38%)
  Node T4 (18.15%)
  Node T5 (15.85%)
  Node T6 (12.05%)
  
  
  ***************************
  Time-Step Critical Elements
  ***************************
  None
  
  
  ********************************
  Highest Flow Instability Indexes
  ********************************
  Link C13 (1)
  
  
  *************************
  Routing Time Step Summary
  *************************
  Minimum Time Step           :     4.53 sec
  Average Time Step           :     5.00 sec
  Maximum Time Step           :     5.00 sec
  Percent in Steady State     :     0.00
  Average Iterations per Step :     2.32
  Percent Not Converging      :     1.06
  
  
  ***************************
  Subcatchment Runoff Summary
  ***************************
  
  ------------------------------------------------------------------------------------------------------------------------------
                            Total      Total      Total      Total     Imperv       Perv      Total       Total     Peak  Runoff
                           Precip      Runon       Evap      Infil     Runoff     Runoff     Runoff      Runoff   Runoff   Coeff
  Subcatchment                 mm         mm         mm         mm         mm         mm         mm    10^6 ltr      CMS
  ------------------------------------------------------------------------------------------------------------------------------
  SC01                      12.69       0.00       0.00       0.00      12.61       0.00      12.61        4.16     0.86   0.993
  SC02                      12.69       0.00       0.00       0.00      12.60       0.00      12.60        2.87     0.59   0.993
  SC03                      12.69       0.00       0.00       0.00      12.62       0.00      12.62        2.27     0.49   0.995
  SC04                      12.69       0.00       0.00       0.00      12.50       0.00      12.50        0.86     0.16   0.985
  SC05                      12.69       0.00       0.00       0.00      12.60       0.00      12.60        1.97     0.40   0.993
  SC06                      12.69       0.00       0.00       0.00      12.44       0.00      12.44        4.05     0.71   0.980
  SC07                      12.69       0.00       0.00       0.00      12.50       0.00      12.50        0.59     0.11   0.985
  SC08                      12.69       0.00       0.00       0.00      12.57       0.00      12.57        3.52     0.69   0.991
  SC09                      12.69       0.00       0.00       0.00      12.55       0.00      12.55        0.87     0.17   0.989
  SC010                     12.69       0.00       0.00       0.00      12.58       0.00      12.58        1.48     0.29   0.991
  
  
  ******************
  Node Depth Summary
  ******************
  
  ---------------------------------------------------------------------------------
                                 Average  Maximum  Maximum  Time of Max    Reported
                                   Depth    Depth      HGL   Occurrence   Max Depth
  Node                 Type       Meters   Meters   Meters  days hr:min      Meters
  ---------------------------------------------------------------------------------
  J1                   JUNCTION     0.09     0.22    34.22     0  02:34        0.22
  J3                   JUNCTION     0.10     0.11    18.11     0  03:48        0.11
  CSO7                 JUNCTION     0.27     1.20    35.20     0  02:10        1.20
  J5                   JUNCTION     0.08     0.16    32.16     0  02:37        0.16
  CSO9                 JUNCTION     0.35     2.00    42.00     0  02:23        2.00
  J8                   JUNCTION     0.13     0.30    36.30     0  02:39        0.30
  CSO8                 JUNCTION     0.38     2.00    34.00     0  02:21        2.00
  J10                  JUNCTION     0.12     0.30    29.30     0  02:33        0.30
  J13                  JUNCTION     0.08     0.21    29.21     0  02:34        0.21
  J15                  JUNCTION     0.18     0.37    15.37     0  02:37        0.37
  J16                  JUNCTION     0.08     0.23    30.23     0  02:34        0.23
  CSO10                JUNCTION     0.22     1.00    31.00     0  02:21        1.00
  J12                  JUNCTION     0.71     1.08    27.08     0  03:01        1.08
  J4                   JUNCTION     0.22     0.76    33.76     0  02:10        0.76
  J6                   JUNCTION     0.06     0.07    25.07     0  03:36        0.07
  J2                   JUNCTION     0.07     0.08    25.08     0  03:14        0.08
  J19                  JUNCTION     0.14     0.17     8.17     0  02:05        0.17
  J9                   JUNCTION     0.10     0.11    29.11     0  03:50        0.11
  J14                  JUNCTION     0.09     0.10    20.10     0  05:48        0.10
  J17                  JUNCTION     0.06     0.08    20.08     0  03:41        0.08
  J7                   JUNCTION     0.10     0.23    39.23     0  02:58        0.23
  J11                  JUNCTION     0.12     0.30    31.30     0  02:58        0.30
  J18                  JUNCTION     0.07     0.16    29.16     0  02:58        0.16
  Out_to_WWTP          OUTFALL      0.14     0.17     6.17     0  03:55        0.17
  T5                   STORAGE      3.70     5.00    32.00     0  02:26        5.00
  T4                   STORAGE      3.62     5.00    32.00     0  02:47        5.00
  T6                   STORAGE      3.86     5.00    36.00     0  02:10        5.00
  T3                   STORAGE      3.70     5.00    27.00     0  02:55        5.00
  T2                   STORAGE      3.68     5.00    26.00     0  02:41        5.00
  T1                   STORAGE      3.46     5.00    15.00     0  02:04        5.00
  
  
  *******************
  Node Inflow Summary
  *******************
  
  -------------------------------------------------------------------------------------------------
                                  Maximum  Maximum                  Lateral       Total        Flow
                                  Lateral    Total  Time of Max      Inflow      Inflow     Balance
                                   Inflow   Inflow   Occurrence      Volume      Volume       Error
  Node                 Type           CMS      CMS  days hr:min    10^6 ltr    10^6 ltr     Percent
  -------------------------------------------------------------------------------------------------
  J1                   JUNCTION     0.423    0.423     0  02:34        2.53        2.53      -0.015
  J3                   JUNCTION     0.000    0.127     0  03:10           0        2.84       1.030
  CSO7                 JUNCTION     0.119    0.119     0  02:37       0.884       0.884       0.061
  J5                   JUNCTION     0.161    0.233     0  02:37        0.99        1.78       0.064
  CSO9                 JUNCTION     0.172    0.172     0  02:36        1.06        1.06       0.042
  J8                   JUNCTION     0.745    0.872     0  02:38        4.99        5.99       0.057
  CSO8                 JUNCTION     0.702    0.702     0  02:35        3.81        3.81       0.006
  J10                  JUNCTION     0.509    0.995     0  02:32        2.66         6.2      -0.066
  J13                  JUNCTION     0.605    0.605     0  02:34        3.33        3.33      -0.214
  J15                  JUNCTION     0.000    1.231     0  02:34           0        9.76       0.690
  J16                  JUNCTION     0.883    0.883     0  02:34        4.71        4.71      -0.035
  CSO10                JUNCTION     0.297    0.297     0  02:35        1.62        1.62       0.012
  J12                  JUNCTION     0.000    1.072     0  02:41           0        7.95      11.339
  J4                   JUNCTION     0.000    0.072     0  02:37           0       0.793       0.427
  J6                   JUNCTION     0.000    0.028     0  02:47           0       0.618       0.637
  J2                   JUNCTION     0.000    0.039     0  02:26           0       0.891       0.567
  J19                  JUNCTION     0.000    0.271     0  02:04           0        5.85       0.177
  J9                   JUNCTION     0.000    0.075     0  02:10           0        1.75       1.004
  J14                  JUNCTION     0.000    0.060     0  02:55           0        1.34       0.328
  J17                  JUNCTION     0.000    0.033     0  02:41           0       0.744       0.896
  J7                   JUNCTION     0.000    0.127     0  02:58           0        1.01       0.315
  J11                  JUNCTION     0.000    0.486     0  02:58           0        3.55       0.198
  J18                  JUNCTION     0.000    0.202     0  02:58           0         1.5       0.045
  Out_to_WWTP          OUTFALL      0.000    0.271     0  02:06           0        5.84       0.000
  T5                   STORAGE      0.000    0.423     0  02:34           0        2.53      18.836
  T4                   STORAGE      0.000    0.233     0  02:37           0        1.78      22.178
  T6                   STORAGE      0.000    0.871     0  02:39           0        5.99      13.699
  T3                   STORAGE      0.000    1.331     0  03:04           0        7.14      24.040
  T2                   STORAGE      0.000    0.604     0  02:34           0        3.34      35.554
  T1                   STORAGE      0.000    1.215     0  02:37           0        9.69       5.472
  
  
  **********************
  Node Surcharge Summary
  **********************
  
  Surcharging occurs when water rises above the top of the highest conduit.
  ---------------------------------------------------------------------
                                               Max. Height   Min. Depth
                                   Hours       Above Crown    Below Rim
  Node                 Type      Surcharged         Meters       Meters
  ---------------------------------------------------------------------
  CSO7                 JUNCTION        1.86          0.945        0.000
  CSO9                 JUNCTION        1.88          1.682        0.000
  CSO8                 JUNCTION        1.59          1.547        0.000
  CSO10                JUNCTION        0.94          0.560        0.000
  J4                   JUNCTION        1.77          0.460        1.240
  
  
  *********************
  Node Flooding Summary
  *********************
  
  Flooding refers to all water that overflows a node, whether it ponds or not.
  --------------------------------------------------------------------------
                                                             Total   Maximum
                                 Maximum   Time of Max       Flood    Ponded
                        Hours       Rate    Occurrence      Volume     Depth
  Node                 Flooded       CMS   days hr:min    10^6 ltr    Meters
  --------------------------------------------------------------------------
  CSO7                    0.94     0.047      0  02:37       0.090     0.000
  CSO9                    0.59     0.045      0  02:36       0.054     0.000
  CSO8                    0.62     0.217      0  02:35       0.265     0.000
  CSO10                   0.63     0.095      0  02:35       0.118     0.000
  T5                      1.48     0.383      0  02:34       0.835     0.000
  T4                      2.08     0.193      0  02:47       0.396     0.000
  T6                      2.95     0.796      0  02:39       3.012     0.000
  T3                      4.28     1.271      0  03:04       1.800     0.000
  T2                      1.65     0.529      0  02:41       0.805     0.000
  T1                      1.67     0.944      0  02:37       2.930     0.000
  
  
  **********************
  Storage Volume Summary
  **********************
  
  --------------------------------------------------------------------------------------------------
                         Average     Avg  Evap Exfil       Maximum     Max    Time of Max    Maximum
                          Volume    Pcnt  Pcnt  Pcnt        Volume    Pcnt     Occurrence    Outflow
  Storage Unit           1000 m3    Full  Loss  Loss       1000 m3    Full    days hr:min        CMS
  --------------------------------------------------------------------------------------------------
  T5                       0.370      74     0     0         0.500     100       0  02:26      0.039
  T4                       0.362      72     0     0         0.500     100       0  02:47      0.028
  T6                       0.463      77     0     0         0.600     100       0  02:10      0.075
  T3                       1.925      74     0     0         2.600     100       0  02:55      0.177
  T2                       0.736      74     0     0         1.000     100       0  02:41      0.033
  T1                       0.484      69     0     0         0.700     100       0  02:04      0.271
  
  
  ***********************
  Outfall Loading Summary
  ***********************
  
  -----------------------------------------------------------
                         Flow       Avg       Max       Total
                         Freq      Flow      Flow      Volume
  Outfall Node           Pcnt       CMS       CMS    10^6 ltr
  -----------------------------------------------------------
  Out_to_WWTP           99.01     0.209     0.271       5.839
  -----------------------------------------------------------
  System                99.01     0.209     0.271       5.839
  
  
  ********************
  Link Flow Summary
  ********************
  
  -----------------------------------------------------------------------------
                                 Maximum  Time of Max   Maximum    Max/    Max/
                                  |Flow|   Occurrence   |Veloc|    Full    Full
  Link                 Type          CMS  days hr:min     m/sec    Flow   Depth
  -----------------------------------------------------------------------------
  C1                   CONDUIT     0.039     0  03:14      1.08    0.01    0.10
  C6                   CONDUIT     0.072     0  02:37      1.29    1.14    0.77
  C2                   CONDUIT     0.028     0  03:36      1.00    0.03    0.16
  C9                   CONDUIT     0.127     0  02:58      1.27    0.43    0.53
  C16                  CONDUIT     0.489     0  02:29      1.79    0.05    0.15
  C3                   CONDUIT     0.060     0  05:47      1.31    0.02    0.11
  C19                  CONDUIT     0.033     0  03:41      0.69    0.01    0.22
  C11                  CONDUIT     0.127     0  03:48      1.44    0.01    0.12
  C20                  CONDUIT     0.883     0  02:34      3.29    0.03    0.15
  C22                  CONDUIT     0.202     0  02:58      1.59    0.09    0.33
  C12                  CONDUIT     0.075     0  03:50      0.59    0.01    0.30
  C17                  CONDUIT     0.992     0  02:33      3.08    0.05    0.34
  C10                  CONDUIT     0.871     0  02:39      1.66    0.09    0.60
  C13                  CONDUIT     1.331     0  03:04      2.16    0.08    0.77
  C18                  CONDUIT     0.604     0  02:34      1.72    0.02    0.55
  C23                  CONDUIT     1.215     0  02:37      1.72    0.13    0.62
  C4                   CONDUIT     0.423     0  02:34      1.98    0.10    0.61
  C7                   CONDUIT     0.233     0  02:37      1.43    0.06    0.58
  C14                  CONDUIT     0.271     0  02:06      2.08    0.02    0.09
  C5                   CONDUIT     0.072     0  02:37      1.40    1.22    1.00
  C8                   CONDUIT     0.127     0  02:58      1.75    1.60    0.86
  C15                  CONDUIT     0.486     0  02:58      3.42    1.55    0.83
  C21                  CONDUIT     0.202     0  02:58      1.83    1.16    0.69
  V4                   ORIFICE     0.028     0  02:47                      0.35
  V5                   ORIFICE     0.039     0  02:26                      1.00
  V1                   ORIFICE     0.271     0  02:04                      1.00
  V6                   ORIFICE     0.075     0  02:10                      0.43
  V3                   ORIFICE     0.060     0  02:55                      0.65
  V2                   ORIFICE     0.033     0  02:41                      0.24
  
  
  ***************************
  Flow Classification Summary
  ***************************
  
  -------------------------------------------------------------------------------------
                      Adjusted    ---------- Fraction of Time in Flow Class ---------- 
                       /Actual         Up    Down  Sub   Sup   Up    Down  Norm  Inlet 
  Conduit               Length    Dry  Dry   Dry   Crit  Crit  Crit  Crit  Ltd   Ctrl  
  -------------------------------------------------------------------------------------
  C1                      1.00   0.00  0.00  0.00  0.00  1.00  0.00  0.00  0.93  0.00
  C6                      1.00   0.00  0.00  0.00  0.26  0.74  0.00  0.00  0.00  0.00
  C2                      1.00   0.00  0.00  0.00  0.06  0.93  0.00  0.00  0.96  0.00
  C9                      1.00   0.00  0.00  0.00  0.98  0.02  0.00  0.00  1.00  0.00
  C16                     1.00   0.00  0.00  0.00  0.54  0.46  0.00  0.00  0.44  0.00
  C3                      1.00   0.00  0.00  0.00  0.04  0.95  0.00  0.00  0.94  0.00
  C19                     1.00   0.00  0.00  0.00  1.00  0.00  0.00  0.00  1.00  0.00
  C11                     1.00   0.00  0.00  0.00  0.37  0.63  0.00  0.00  1.00  0.00
  C20                     1.00   0.00  0.00  0.00  0.54  0.46  0.00  0.00  0.97  0.00
  C22                     1.00   0.00  0.00  0.00  0.71  0.29  0.00  0.00  1.00  0.00
  C12                     1.00   0.00  0.00  0.00  1.00  0.00  0.00  0.00  1.00  0.00
  C17                     1.00   0.00  0.00  0.00  0.65  0.35  0.00  0.00  0.94  0.00
  C10                     1.00   0.00  0.00  0.00  0.96  0.04  0.00  0.00  0.97  0.00
  C13                     1.00   0.00  0.00  0.00  0.84  0.16  0.00  0.00  0.22  0.00
  C18                     1.00   0.00  0.00  0.00  0.92  0.08  0.00  0.00  0.97  0.00
  C23                     1.00   0.00  0.00  0.00  0.86  0.14  0.00  0.00  0.94  0.00
  C4                      1.00   0.00  0.00  0.00  0.96  0.04  0.00  0.00  0.98  0.00
  C7                      1.00   0.00  0.00  0.00  0.95  0.05  0.00  0.00  0.97  0.00
  C14                     1.00   0.00  0.00  0.00  0.00  0.99  0.00  0.00  0.29  0.00
  C5                      1.00   0.00  0.00  0.00  0.94  0.06  0.00  0.00  0.71  0.00
  C8                      1.00   0.00  0.00  0.00  0.26  0.74  0.00  0.00  0.00  0.00
  C15                     1.00   0.00  0.00  0.00  0.00  1.00  0.00  0.00  0.00  0.00
  C21                     1.00   0.00  0.00  0.00  0.01  0.99  0.00  0.00  0.00  0.00
  
  
  *************************
  Conduit Surcharge Summary
  *************************
  
  ----------------------------------------------------------------------------
                                                           Hours        Hours 
                         --------- Hours Full --------   Above Full   Capacity
  Conduit                Both Ends  Upstream  Dnstream   Normal Flow   Limited
  ----------------------------------------------------------------------------
  C6                          0.01      1.77      0.01      1.16         0.01
  C10                         0.01      0.01      6.35      0.01         0.01
  C13                         0.01      0.01      5.93      0.01         0.01
  C18                         0.01      0.01      6.00      0.01         0.01
  C23                         0.01      0.01      6.42      0.01         0.01
  C4                          0.01      0.01      6.49      0.01         0.01
  C7                          0.01      0.01      6.30      0.01         0.01
  C5                          1.84      1.86      1.94      1.74         1.65
  C8                          0.01      1.88      0.01      1.90         0.01
  C15                         0.01      1.59      0.01      1.79         0.01
  C21                         0.01      0.94      0.01      0.93         0.01
  

  Analysis begun on:  Fri Sep  3 16:44:27 2021
  Analysis ended on:  Fri Sep  3 16:44:27 2021
  Total elapsed time: < 1 sec