
  EPA STORM WATER MANAGEMENT MODEL - VERSION 5.1 (Build 5.3.0.dev0)
  --------------------------------------------------------------

  
  *********************************************************
  NOTE: The summary statistics displayed in this report are
  based on results found at every computational time step,  
  not just on results from each reporting time step.
  *********************************************************
  
  ****************
  Analysis Options
  ****************
  Flow Units ............... CMS
  Process Models:
    Rainfall/Runoff ........ YES
    RDII ................... NO
    Snowmelt ............... NO
    Groundwater ............ NO
    Flow Routing ........... YES
    Ponding Allowed ........ YES
    Water Quality .......... NO
  Infiltration Method ...... HORTON
  Flow Routing Method ...... DYNWAVE
  Surcharge Method ......... EXTRAN
  Starting Date ............ 08/28/2015 08:00:00
  Ending Date .............. 08/28/2015 15:50:00
  Antecedent Dry Days ...... 0.0
  Report Time Step ......... 00:01:00
  Wet Time Step ............ 00:01:00
  Dry Time Step ............ 00:01:00
  Routing Time Step ........ 5.00 sec
  Variable Time Step ....... YES
  Maximum Trials ........... 8
  Number of Threads ........ 1
  Head Tolerance ........... 0.001500 m
  
  
  **************************        Volume         Depth
  Runoff Quantity Continuity     hectare-m            mm
  **************************     ---------       -------
  Total Precipitation ......         2.402        13.332
  Evaporation Loss .........         0.000         0.000
  Infiltration Loss ........         0.000         0.000
  Surface Runoff ...........         2.379        13.202
  Final Storage ............         0.024         0.131
  Continuity Error (%) .....        -0.011
  
  
  **************************        Volume        Volume
  Flow Routing Continuity        hectare-m      10^6 ltr
  **************************     ---------     ---------
  Dry Weather Inflow .......         0.396         3.955
  Wet Weather Inflow .......         2.379        23.791
  Groundwater Inflow .......         0.000         0.000
  RDII Inflow ..............         0.000         0.000
  External Inflow ..........         0.000         0.000
  External Outflow .........         0.571         5.712
  Flooding Loss ............         1.160        11.601
  Evaporation Loss .........         0.000         0.000
  Exfiltration Loss ........         0.000         0.000
  Initial Stored Volume ....         0.000         0.000
  Final Stored Volume ......         0.804         8.038
  Continuity Error (%) .....         8.631
  
  
  *************************
  Highest Continuity Errors
  *************************
  Node T2 (25.01%)
  Node T3 (19.39%)
  Node T4 (18.02%)
  Node T5 (15.13%)
  Node T6 (11.65%)
  
  
  ***************************
  Time-Step Critical Elements
  ***************************
  None
  
  
  ********************************
  Highest Flow Instability Indexes
  ********************************
  Link C13 (1)
  
  
  *************************
  Routing Time Step Summary
  *************************
  Minimum Time Step           :     4.50 sec
  Average Time Step           :     5.00 sec
  Maximum Time Step           :     5.00 sec
  Percent in Steady State     :     0.00
  Average Iterations per Step :     2.19
  Percent Not Converging      :     0.57
  
  
  ***************************
  Subcatchment Runoff Summary
  ***************************
  
  ------------------------------------------------------------------------------------------------------------------------------
                            Total      Total      Total      Total     Imperv       Perv      Total       Total     Peak  Runoff
                           Precip      Runon       Evap      Infil     Runoff     Runoff     Runoff      Runoff   Runoff   Coeff
  Subcatchment                 mm         mm         mm         mm         mm         mm         mm    10^6 ltr      CMS
  ------------------------------------------------------------------------------------------------------------------------------
  SC01                      13.33       0.00       0.00       0.00      13.25       0.00      13.25        4.37     1.04   0.994
  SC02                      13.33       0.00       0.00       0.00      13.24       0.00      13.24        3.01     0.71   0.993
  SC03                      13.33       0.00       0.00       0.00      13.27       0.00      13.27        2.39     0.60   0.995
  SC04                      13.33       0.00       0.00       0.00      13.14       0.00      13.14        0.91     0.19   0.985
  SC05                      13.33       0.00       0.00       0.00      13.24       0.00      13.24        2.07     0.49   0.993
  SC06                      13.33       0.00       0.00       0.00      13.08       0.00      13.08        4.26     0.84   0.981
  SC07                      13.33       0.00       0.00       0.00      13.14       0.00      13.14        0.62     0.13   0.985
  SC08                      13.33       0.00       0.00       0.00      13.22       0.00      13.22        3.70     0.84   0.991
  SC09                      13.33       0.00       0.00       0.00      13.19       0.00      13.19        0.91     0.20   0.989
  SC010                     13.33       0.00       0.00       0.00      13.22       0.00      13.22        1.55     0.35   0.992
  
  
  ******************
  Node Depth Summary
  ******************
  
  ---------------------------------------------------------------------------------
                                 Average  Maximum  Maximum  Time of Max    Reported
                                   Depth    Depth      HGL   Occurrence   Max Depth
  Node                 Type       Meters   Meters   Meters  days hr:min      Meters
  ---------------------------------------------------------------------------------
  J1                   JUNCTION     0.09     0.24    34.24     0  02:21        0.24
  J3                   JUNCTION     0.10     0.11    18.11     0  03:47        0.11
  CSO7                 JUNCTION     0.27     1.20    35.20     0  01:57        1.20
  J5                   JUNCTION     0.08     0.17    32.17     0  02:25        0.17
  CSO9                 JUNCTION     0.37     2.00    42.00     0  02:05        2.00
  J8                   JUNCTION     0.13     0.33    36.33     0  02:26        0.33
  CSO8                 JUNCTION     0.39     2.00    34.00     0  02:02        2.00
  J10                  JUNCTION     0.12     0.32    29.32     0  02:20        0.32
  J13                  JUNCTION     0.08     0.23    29.23     0  02:21        0.23
  J15                  JUNCTION     0.18     0.40    15.40     0  02:24        0.40
  J16                  JUNCTION     0.08     0.25    30.25     0  02:21        0.25
  CSO10                JUNCTION     0.23     1.00    31.00     0  02:02        1.00
  J12                  JUNCTION     0.71     1.10    27.10     0  03:00        1.10
  J4                   JUNCTION     0.21     1.21    34.21     0  01:57        0.76
  J6                   JUNCTION     0.06     0.07    25.07     0  03:33        0.07
  J2                   JUNCTION     0.07     0.08    25.08     0  03:10        0.08
  J19                  JUNCTION     0.14     0.17     8.17     0  02:11        0.17
  J9                   JUNCTION     0.10     0.11    29.11     0  03:59        0.11
  J14                  JUNCTION     0.09     0.10    20.10     0  05:46        0.10
  J17                  JUNCTION     0.06     0.08    20.08     0  03:35        0.08
  J7                   JUNCTION     0.10     0.23    39.23     0  02:54        0.23
  J11                  JUNCTION     0.12     0.30    31.30     0  02:54        0.30
  J18                  JUNCTION     0.07     0.16    29.16     0  02:39        0.16
  Out_to_WWTP          OUTFALL      0.14     0.17     6.17     0  03:54        0.17
  T5                   STORAGE      3.64     5.00    32.00     0  02:21        5.00
  T4                   STORAGE      3.57     5.00    32.00     0  02:45        5.00
  T6                   STORAGE      3.76     5.00    36.00     0  02:14        5.00
  T3                   STORAGE      3.65     5.00    27.00     0  02:54        5.00
  T2                   STORAGE      3.65     5.00    26.00     0  02:34        5.00
  T1                   STORAGE      3.34     5.00    15.00     0  02:10        5.00
  
  
  *******************
  Node Inflow Summary
  *******************
  
  -------------------------------------------------------------------------------------------------
                                  Maximum  Maximum                  Lateral       Total        Flow
                                  Lateral    Total  Time of Max      Inflow      Inflow     Balance
                                   Inflow   Inflow   Occurrence      Volume      Volume       Error
  Node                 Type           CMS      CMS  days hr:min    10^6 ltr    10^6 ltr     Percent
  -------------------------------------------------------------------------------------------------
  J1                   JUNCTION     0.508    0.508     0  02:21        2.63        2.63      -0.000
  J3                   JUNCTION     0.000    0.127     0  03:09           0         2.8       1.042
  CSO7                 JUNCTION     0.140    0.140     0  02:24       0.915       0.915       0.052
  J5                   JUNCTION     0.192    0.264     0  02:24        1.03        1.79       0.076
  CSO9                 JUNCTION     0.206    0.206     0  02:23        1.11        1.11       0.041
  J8                   JUNCTION     0.875    1.002     0  02:25         5.2        6.18       0.071
  CSO8                 JUNCTION     0.846    0.846     0  02:22        3.99        3.99       0.011
  J10                  JUNCTION     0.613    1.098     0  02:20        2.77         6.2      -0.052
  J13                  JUNCTION     0.729    0.729     0  02:21        3.48        3.48      -0.151
  J15                  JUNCTION     0.000    1.397     0  02:21           0        9.87       0.687
  J16                  JUNCTION     1.065    1.065     0  02:21        4.93        4.93      -0.019
  CSO10                JUNCTION     0.358    0.358     0  02:22        1.69        1.69       0.018
  J12                  JUNCTION     0.000    1.169     0  02:21           0        7.94      11.403
  J4                   JUNCTION     0.000    0.072     0  02:25           0        0.76       0.445
  J6                   JUNCTION     0.000    0.028     0  02:45           0       0.612       0.646
  J2                   JUNCTION     0.000    0.039     0  02:21           0       0.879       0.575
  J19                  JUNCTION     0.000    0.271     0  02:10           0        5.72       0.181
  J9                   JUNCTION     0.000    0.075     0  02:15           0        1.72       1.013
  J14                  JUNCTION     0.000    0.060     0  02:54           0        1.32       0.333
  J17                  JUNCTION     0.000    0.033     0  02:34           0       0.736       0.898
  J7                   JUNCTION     0.000    0.127     0  02:54           0       0.984       0.319
  J11                  JUNCTION     0.000    0.487     0  02:54           0        3.43       0.192
  J18                  JUNCTION     0.000    0.202     0  02:39           0        1.45       0.055
  Out_to_WWTP          OUTFALL      0.000    0.271     0  02:11           0        5.71       0.000
  T5                   STORAGE      0.000    0.507     0  02:21           0        2.63      17.833
  T4                   STORAGE      0.000    0.264     0  02:25           0        1.79      21.977
  T6                   STORAGE      0.000    1.001     0  02:26           0        6.18      13.185
  T3                   STORAGE      0.000    1.467     0  03:03           0        7.12      24.051
  T2                   STORAGE      0.000    0.728     0  02:21           0        3.49      33.350
  T1                   STORAGE      0.000    1.376     0  02:24           0        9.81       5.356
  
  
  **********************
  Node Surcharge Summary
  **********************
  
  Surcharging occurs when water rises above the top of the highest conduit.
  ---------------------------------------------------------------------
                                               Max. Height   Min. Depth
                                   Hours       Above Crown    Below Rim
  Node                 Type      Surcharged         Meters       Meters
  ---------------------------------------------------------------------
  CSO7                 JUNCTION        1.34          0.945        0.000
  CSO9                 JUNCTION        1.37          1.682        0.000
  CSO8                 JUNCTION        1.34          1.547        0.000
  CSO10                JUNCTION        1.08          0.560        0.000
  J4                   JUNCTION        1.31          0.908        0.792
  
  
  *********************
  Node Flooding Summary
  *********************
  
  Flooding refers to all water that overflows a node, whether it ponds or not.
  --------------------------------------------------------------------------
                                                             Total   Maximum
                                 Maximum   Time of Max       Flood    Ponded
                        Hours       Rate    Occurrence      Volume     Depth
  Node                 Flooded       CMS   days hr:min    10^6 ltr    Meters
  --------------------------------------------------------------------------
  CSO7                    1.16     0.067      0  02:24       0.154     0.000
  CSO9                    0.83     0.079      0  02:23       0.122     0.000
  CSO8                    0.86     0.361      0  02:22       0.558     0.000
  CSO10                   0.88     0.156      0  02:22       0.244     0.000
  T5                      1.55     0.468      0  02:21       0.950     0.000
  T4                      2.11     0.195      0  02:45       0.414     0.000
  T6                      2.87     0.926      0  02:26       3.229     0.000
  T3                      4.23     1.407      0  03:03       1.793     0.000
  T2                      1.76     0.560      0  02:34       0.961     0.000
  T1                      1.56     1.105      0  02:24       3.176     0.000
  
  
  **********************
  Storage Volume Summary
  **********************
  
  --------------------------------------------------------------------------------------------------
                         Average     Avg  Evap Exfil       Maximum     Max    Time of Max    Maximum
                          Volume    Pcnt  Pcnt  Pcnt        Volume    Pcnt     Occurrence    Outflow
  Storage Unit           1000 m3    Full  Loss  Loss       1000 m3    Full    days hr:min        CMS
  --------------------------------------------------------------------------------------------------
  T5                       0.364      73     0     0         0.500     100       0  02:21      0.039
  T4                       0.357      71     0     0         0.500     100       0  02:45      0.028
  T6                       0.452      75     0     0         0.600     100       0  02:14      0.075
  T3                       1.900      73     0     0         2.600     100       0  02:54      0.193
  T2                       0.730      73     0     0         1.000     100       0  02:34      0.033
  T1                       0.468      67     0     0         0.700     100       0  02:10      0.271
  
  
  ***********************
  Outfall Loading Summary
  ***********************
  
  -----------------------------------------------------------
                         Flow       Avg       Max       Total
                         Freq      Flow      Flow      Volume
  Outfall Node           Pcnt       CMS       CMS    10^6 ltr
  -----------------------------------------------------------
  Out_to_WWTP           99.01     0.205     0.271       5.712
  -----------------------------------------------------------
  System                99.01     0.205     0.271       5.712
  
  
  ********************
  Link Flow Summary
  ********************
  
  -----------------------------------------------------------------------------
                                 Maximum  Time of Max   Maximum    Max/    Max/
                                  |Flow|   Occurrence   |Veloc|    Full    Full
  Link                 Type          CMS  days hr:min     m/sec    Flow   Depth
  -----------------------------------------------------------------------------
  C1                   CONDUIT     0.039     0  03:09      1.09    0.01    0.10
  C6                   CONDUIT     0.072     0  02:25      1.29    1.15    0.79
  C2                   CONDUIT     0.028     0  03:33      1.01    0.03    0.16
  C9                   CONDUIT     0.127     0  02:55      1.29    0.43    0.56
  C16                  CONDUIT     0.488     0  02:12      1.79    0.05    0.15
  C3                   CONDUIT     0.060     0  05:46      1.31    0.02    0.11
  C19                  CONDUIT     0.033     0  03:35      0.69    0.01    0.23
  C11                  CONDUIT     0.127     0  03:47      1.44    0.01    0.12
  C20                  CONDUIT     1.064     0  02:21      3.30    0.03    0.16
  C22                  CONDUIT     0.202     0  02:39      1.60    0.09    0.35
  C12                  CONDUIT     0.075     0  03:59      0.59    0.01    0.30
  C17                  CONDUIT     1.094     0  02:21      3.18    0.05    0.34
  C10                  CONDUIT     1.001     0  02:26      1.66    0.10    0.61
  C13                  CONDUIT     1.467     0  03:03      1.59    0.09    0.77
  C18                  CONDUIT     0.728     0  02:21      1.72    0.03    0.56
  C23                  CONDUIT     1.376     0  02:24      1.45    0.15    0.63
  C4                   CONDUIT     0.507     0  02:21      1.98    0.12    0.62
  C7                   CONDUIT     0.264     0  02:25      1.43    0.06    0.59
  C14                  CONDUIT     0.271     0  02:11      2.08    0.02    0.09
  C5                   CONDUIT     0.072     0  02:25      1.41    1.23    1.00
  C8                   CONDUIT     0.127     0  02:54      1.75    1.60    0.86
  C15                  CONDUIT     0.487     0  02:54      3.42    1.55    0.83
  C21                  CONDUIT     0.202     0  02:39      1.82    1.16    0.69
  V4                   ORIFICE     0.028     0  02:45                      0.35
  V5                   ORIFICE     0.039     0  02:21                      1.00
  V1                   ORIFICE     0.271     0  02:10                      1.00
  V6                   ORIFICE     0.075     0  02:15                      0.43
  V3                   ORIFICE     0.060     0  02:54                      0.65
  V2                   ORIFICE     0.033     0  02:34                      0.24
  
  
  ***************************
  Flow Classification Summary
  ***************************
  
  -------------------------------------------------------------------------------------
                      Adjusted    ---------- Fraction of Time in Flow Class ---------- 
                       /Actual         Up    Down  Sub   Sup   Up    Down  Norm  Inlet 
  Conduit               Length    Dry  Dry   Dry   Crit  Crit  Crit  Crit  Ltd   Ctrl  
  -------------------------------------------------------------------------------------
  C1                      1.00   0.00  0.00  0.00  0.00  1.00  0.00  0.00  0.93  0.00
  C6                      1.00   0.00  0.00  0.00  0.20  0.80  0.00  0.00  0.00  0.00
  C2                      1.00   0.00  0.00  0.00  0.04  0.96  0.00  0.00  0.97  0.00
  C9                      1.00   0.00  0.00  0.00  1.00  0.00  0.00  0.00  1.00  0.00
  C16                     1.00   0.00  0.00  0.00  0.54  0.46  0.00  0.00  0.47  0.00
  C3                      1.00   0.00  0.00  0.00  0.04  0.95  0.00  0.00  0.96  0.00
  C19                     1.00   0.00  0.00  0.00  1.00  0.00  0.00  0.00  1.00  0.00
  C11                     1.00   0.00  0.00  0.00  0.37  0.63  0.00  0.00  1.00  0.00
  C20                     1.00   0.00  0.00  0.00  0.54  0.46  0.00  0.00  0.97  0.00
  C22                     1.00   0.00  0.00  0.00  0.74  0.26  0.00  0.00  1.00  0.00
  C12                     1.00   0.00  0.00  0.00  1.00  0.00  0.00  0.00  1.00  0.00
  C17                     1.00   0.00  0.00  0.00  0.66  0.34  0.00  0.00  0.94  0.00
  C10                     1.00   0.00  0.00  0.00  0.96  0.04  0.00  0.00  0.97  0.00
  C13                     1.00   0.00  0.00  0.00  0.85  0.15  0.00  0.00  0.23  0.00
  C18                     1.00   0.00  0.00  0.00  0.93  0.07  0.00  0.00  0.97  0.00
  C23                     1.00   0.00  0.00  0.00  0.86  0.14  0.00  0.00  0.94  0.00
  C4                      1.00   0.00  0.00  0.00  0.96  0.04  0.00  0.00  0.98  0.00
  C7                      1.00   0.00  0.00  0.00  0.95  0.05  0.00  0.00  0.97  0.00
  C14                     1.00   0.00  0.00  0.00  0.00  0.99  0.00  0.00  0.29  0.00
  C5                      1.00   0.00  0.00  0.00  0.92  0.08  0.00  0.00  0.80  0.00
  C8                      1.00   0.00  0.00  0.00  0.21  0.79  0.00  0.00  0.00  0.00
  C15                     1.00   0.00  0.00  0.00  0.00  1.00  0.00  0.00  0.00  0.00
  C21                     1.00   0.00  0.00  0.00  0.00  1.00  0.00  0.00  0.00  0.00
  
  
  *************************
  Conduit Surcharge Summary
  *************************
  
  ----------------------------------------------------------------------------
                                                           Hours        Hours 
                         --------- Hours Full --------   Above Full   Capacity
  Conduit                Both Ends  Upstream  Dnstream   Normal Flow   Limited
  ----------------------------------------------------------------------------
  C6                          0.01      1.30      0.01      1.21         0.01
  C10                         0.01      0.01      6.16      0.01         0.01
  C13                         0.01      0.01      5.76      0.01         0.01
  C18                         0.01      0.01      5.82      0.01         0.01
  C23                         0.01      0.01      6.23      0.01         0.01
  C4                          0.01      0.01      6.34      0.01         0.01
  C7                          0.01      0.01      6.09      0.01         0.01
  C5                          1.34      1.34      1.44      1.41         1.31
  C8                          0.01      1.37      0.01      1.40         0.01
  C15                         0.01      1.34      0.01      1.42         0.01
  C21                         0.01      1.08      0.01      1.09         0.01
  

  Analysis begun on:  Fri Sep  3 16:45:44 2021
  Analysis ended on:  Fri Sep  3 16:45:44 2021
  Total elapsed time: < 1 sec