
  EPA STORM WATER MANAGEMENT MODEL - VERSION 5.1 (Build 5.3.0.dev0)
  --------------------------------------------------------------

  
  *********************************************************
  NOTE: The summary statistics displayed in this report are
  based on results found at every computational time step,  
  not just on results from each reporting time step.
  *********************************************************
  
  ****************
  Analysis Options
  ****************
  Flow Units ............... CMS
  Process Models:
    Rainfall/Runoff ........ YES
    RDII ................... NO
    Snowmelt ............... NO
    Groundwater ............ NO
    Flow Routing ........... YES
    Ponding Allowed ........ YES
    Water Quality .......... NO
  Infiltration Method ...... HORTON
  Flow Routing Method ...... DYNWAVE
  Surcharge Method ......... EXTRAN
  Starting Date ............ 08/28/2015 08:00:00
  Ending Date .............. 08/28/2015 15:50:00
  Antecedent Dry Days ...... 0.0
  Report Time Step ......... 00:01:00
  Wet Time Step ............ 00:01:00
  Dry Time Step ............ 00:01:00
  Routing Time Step ........ 5.00 sec
  Variable Time Step ....... YES
  Maximum Trials ........... 8
  Number of Threads ........ 1
  Head Tolerance ........... 0.001500 m
  
  
  **************************        Volume         Depth
  Runoff Quantity Continuity     hectare-m            mm
  **************************     ---------       -------
  Total Precipitation ......         1.499         8.318
  Evaporation Loss .........         0.000         0.000
  Infiltration Loss ........         0.000         0.000
  Surface Runoff ...........         1.475         8.186
  Final Storage ............         0.024         0.133
  Continuity Error (%) .....        -0.008
  
  
  **************************        Volume        Volume
  Flow Routing Continuity        hectare-m      10^6 ltr
  **************************     ---------     ---------
  Dry Weather Inflow .......         0.396         3.955
  Wet Weather Inflow .......         1.475        14.752
  Groundwater Inflow .......         0.000         0.000
  RDII Inflow ..............         0.000         0.000
  External Inflow ..........         0.000         0.000
  External Outflow .........         0.532         5.317
  Flooding Loss ............         0.312         3.118
  Evaporation Loss .........         0.000         0.000
  Exfiltration Loss ........         0.000         0.000
  Initial Stored Volume ....         0.000         0.000
  Final Stored Volume ......         0.793         7.928
  Continuity Error (%) .....        12.531
  
  
  *************************
  Highest Continuity Errors
  *************************
  Node T2 (35.05%)
  Node T3 (24.60%)
  Node T4 (24.29%)
  Node T5 (21.73%)
  Node T6 (16.76%)
  
  
  ***************************
  Time-Step Critical Elements
  ***************************
  None
  
  
  ********************************
  Highest Flow Instability Indexes
  ********************************
  Link C13 (2)
  
  
  *************************
  Routing Time Step Summary
  *************************
  Minimum Time Step           :     4.50 sec
  Average Time Step           :     5.00 sec
  Maximum Time Step           :     5.00 sec
  Percent in Steady State     :     0.00
  Average Iterations per Step :     2.17
  Percent Not Converging      :     0.59
  
  
  ***************************
  Subcatchment Runoff Summary
  ***************************
  
  ------------------------------------------------------------------------------------------------------------------------------
                            Total      Total      Total      Total     Imperv       Perv      Total       Total     Peak  Runoff
                           Precip      Runon       Evap      Infil     Runoff     Runoff     Runoff      Runoff   Runoff   Coeff
  Subcatchment                 mm         mm         mm         mm         mm         mm         mm    10^6 ltr      CMS
  ------------------------------------------------------------------------------------------------------------------------------
  SC01                       8.32       0.00       0.00       0.00       8.23       0.00       8.23        2.72     0.79   0.990
  SC02                       8.32       0.00       0.00       0.00       8.23       0.00       8.23        1.87     0.54   0.989
  SC03                       8.32       0.00       0.00       0.00       8.25       0.00       8.25        1.48     0.46   0.992
  SC04                       8.32       0.00       0.00       0.00       8.12       0.00       8.12        0.56     0.14   0.976
  SC05                       8.32       0.00       0.00       0.00       8.23       0.00       8.23        1.28     0.37   0.989
  SC06                       8.32       0.00       0.00       0.00       8.07       0.00       8.07        2.63     0.63   0.970
  SC07                       8.32       0.00       0.00       0.00       8.12       0.00       8.12        0.39     0.10   0.976
  SC08                       8.32       0.00       0.00       0.00       8.20       0.00       8.20        2.30     0.63   0.986
  SC09                       8.32       0.00       0.00       0.00       8.17       0.00       8.17        0.56     0.15   0.983
  SC010                      8.32       0.00       0.00       0.00       8.20       0.00       8.20        0.96     0.27   0.986
  
  
  ******************
  Node Depth Summary
  ******************
  
  ---------------------------------------------------------------------------------
                                 Average  Maximum  Maximum  Time of Max    Reported
                                   Depth    Depth      HGL   Occurrence   Max Depth
  Node                 Type       Meters   Meters   Meters  days hr:min      Meters
  ---------------------------------------------------------------------------------
  J1                   JUNCTION     0.08     0.21    34.21     0  02:56        0.21
  J3                   JUNCTION     0.09     0.11    18.11     0  05:01        0.11
  CSO7                 JUNCTION     0.18     1.20    35.20     0  02:41        1.20
  J5                   JUNCTION     0.07     0.16    32.16     0  03:01        0.16
  CSO9                 JUNCTION     0.21     2.00    42.00     0  02:48        2.00
  J8                   JUNCTION     0.12     0.29    36.29     0  03:01        0.29
  CSO8                 JUNCTION     0.23     2.00    34.00     0  02:46        2.00
  J10                  JUNCTION     0.10     0.30    29.30     0  02:55        0.30
  J13                  JUNCTION     0.07     0.20    29.20     0  02:56        0.20
  J15                  JUNCTION     0.16     0.36    15.36     0  03:00        0.36
  J16                  JUNCTION     0.07     0.22    30.22     0  02:56        0.22
  CSO10                JUNCTION     0.16     1.00    31.00     0  02:46        1.00
  J12                  JUNCTION     0.50     0.98    26.98     0  07:48        0.98
  J4                   JUNCTION     0.16     1.23    34.23     0  02:41        0.79
  J6                   JUNCTION     0.06     0.07    25.07     0  04:57        0.07
  J2                   JUNCTION     0.07     0.08    25.08     0  03:50        0.08
  J19                  JUNCTION     0.14     0.17     8.17     0  02:51        0.17
  J9                   JUNCTION     0.09     0.11    29.11     0  04:26        0.11
  J14                  JUNCTION     0.08     0.10    20.10     0  07:45        0.10
  J17                  JUNCTION     0.06     0.07    20.07     0  04:30        0.07
  J7                   JUNCTION     0.09     0.23    39.23     0  03:04        0.23
  J11                  JUNCTION     0.11     0.30    31.30     0  02:50        0.30
  J18                  JUNCTION     0.06     0.16    29.16     0  03:04        0.16
  Out_to_WWTP          OUTFALL      0.14     0.17     6.17     0  03:56        0.17
  T5                   STORAGE      3.31     5.00    32.00     0  03:02        5.00
  T4                   STORAGE      3.17     4.96    31.96     0  04:56        4.96
  T6                   STORAGE      3.46     5.00    36.00     0  02:52        5.00
  T3                   STORAGE      3.16     4.97    26.97     0  07:44        4.97
  T2                   STORAGE      3.08     4.67    25.67     0  04:28        4.67
  T1                   STORAGE      3.01     5.00    15.00     0  02:50        5.00
  
  
  *******************
  Node Inflow Summary
  *******************
  
  -------------------------------------------------------------------------------------------------
                                  Maximum  Maximum                  Lateral       Total        Flow
                                  Lateral    Total  Time of Max      Inflow      Inflow     Balance
                                   Inflow   Inflow   Occurrence      Volume      Volume       Error
  Node                 Type           CMS      CMS  days hr:min    10^6 ltr    10^6 ltr     Percent
  -------------------------------------------------------------------------------------------------
  J1                   JUNCTION     0.389    0.389     0  02:56        1.85        1.85       0.026
  J3                   JUNCTION     0.000    0.125     0  04:59           0        2.59       1.116
  CSO7                 JUNCTION     0.109    0.109     0  03:00       0.676       0.676       0.068
  J5                   JUNCTION     0.146    0.218     0  03:00       0.688        1.32       0.124
  CSO9                 JUNCTION     0.157    0.157     0  03:00        0.76        0.76       0.062
  J8                   JUNCTION     0.672    0.799     0  03:01        3.57         4.3       0.123
  CSO8                 JUNCTION     0.642    0.642     0  02:57        2.59        2.59       0.022
  J10                  JUNCTION     0.469    0.957     0  02:54        1.87        4.34       0.047
  J13                  JUNCTION     0.556    0.556     0  02:56        2.34        2.34      -0.159
  J15                  JUNCTION     0.000    1.139     0  02:56           0        7.54       0.910
  J16                  JUNCTION     0.812    0.812     0  02:56        3.27        3.27      -0.008
  CSO10                JUNCTION     0.272    0.272     0  02:57         1.1         1.1       0.033
  J12                  JUNCTION     0.000    1.028     0  02:56           0        6.36      14.087
  J4                   JUNCTION     0.000    0.071     0  03:01           0        0.64       0.525
  J6                   JUNCTION     0.000    0.028     0  04:56           0       0.563       0.703
  J2                   JUNCTION     0.000    0.039     0  03:02           0       0.825       0.616
  J19                  JUNCTION     0.000    0.271     0  02:50           0        5.33       0.194
  J9                   JUNCTION     0.000    0.075     0  02:53           0        1.62       1.051
  J14                  JUNCTION     0.000    0.060     0  07:44           0        1.21       0.362
  J17                  JUNCTION     0.000    0.032     0  04:28           0       0.664       0.948
  J7                   JUNCTION     0.000    0.127     0  03:04           0        0.74       0.424
  J11                  JUNCTION     0.000    0.486     0  02:50           0        2.48       0.253
  J18                  JUNCTION     0.000    0.202     0  03:04           0        1.05       0.090
  Out_to_WWTP          OUTFALL      0.000    0.271     0  02:51           0        5.32       0.000
  T5                   STORAGE      0.000    0.389     0  02:56           0        1.84      27.762
  T4                   STORAGE      0.000    0.217     0  03:01           0        1.32      32.090
  T6                   STORAGE      0.000    0.796     0  03:01           0         4.3      20.131
  T3                   STORAGE      0.000    1.019     0  02:58           0        5.58      32.620
  T2                   STORAGE      0.000    0.556     0  02:56           0        2.34      53.975
  T1                   STORAGE      0.000    1.124     0  03:00           0        7.47       7.094
  
  
  **********************
  Node Surcharge Summary
  **********************
  
  Surcharging occurs when water rises above the top of the highest conduit.
  ---------------------------------------------------------------------
                                               Max. Height   Min. Depth
                                   Hours       Above Crown    Below Rim
  Node                 Type      Surcharged         Meters       Meters
  ---------------------------------------------------------------------
  CSO7                 JUNCTION        0.66          0.945        0.000
  CSO9                 JUNCTION        0.67          1.682        0.000
  CSO8                 JUNCTION        0.61          1.547        0.000
  CSO10                JUNCTION        0.40          0.560        0.000
  J4                   JUNCTION        0.62          0.925        0.775
  
  
  *********************
  Node Flooding Summary
  *********************
  
  Flooding refers to all water that overflows a node, whether it ponds or not.
  --------------------------------------------------------------------------
                                                             Total   Maximum
                                 Maximum   Time of Max       Flood    Ponded
                        Hours       Rate    Occurrence      Volume     Depth
  Node                 Flooded       CMS   days hr:min    10^6 ltr    Meters
  --------------------------------------------------------------------------
  CSO7                    0.48     0.038      0  03:00       0.035     0.000
  CSO9                    0.26     0.030      0  03:00       0.019     0.000
  CSO8                    0.29     0.157      0  02:57       0.108     0.000
  CSO10                   0.30     0.070      0  02:57       0.050     0.000
  T5                      0.98     0.315      0  03:02       0.217     0.000
  T6                      2.28     0.721      0  03:01       1.445     0.000
  T1                      0.94     0.853      0  03:00       1.244     0.000
  
  
  **********************
  Storage Volume Summary
  **********************
  
  --------------------------------------------------------------------------------------------------
                         Average     Avg  Evap Exfil       Maximum     Max    Time of Max    Maximum
                          Volume    Pcnt  Pcnt  Pcnt        Volume    Pcnt     Occurrence    Outflow
  Storage Unit           1000 m3    Full  Loss  Loss       1000 m3    Full    days hr:min        CMS
  --------------------------------------------------------------------------------------------------
  T5                       0.331      66     0     0         0.500     100       0  03:02      0.039
  T4                       0.317      63     0     0         0.496      99       0  04:56      0.028
  T6                       0.415      69     0     0         0.600     100       0  02:52      0.075
  T3                       1.644      63     0     0         2.587      99       0  07:44      0.226
  T2                       0.615      62     0     0         0.933      93       0  04:28      0.032
  T1                       0.421      60     0     0         0.700     100       0  02:50      0.271
  
  
  ***********************
  Outfall Loading Summary
  ***********************
  
  -----------------------------------------------------------
                         Flow       Avg       Max       Total
                         Freq      Flow      Flow      Volume
  Outfall Node           Pcnt       CMS       CMS    10^6 ltr
  -----------------------------------------------------------
  Out_to_WWTP           99.01     0.190     0.271       5.317
  -----------------------------------------------------------
  System                99.01     0.190     0.271       5.317
  
  
  ********************
  Link Flow Summary
  ********************
  
  -----------------------------------------------------------------------------
                                 Maximum  Time of Max   Maximum    Max/    Max/
                                  |Flow|   Occurrence   |Veloc|    Full    Full
  Link                 Type          CMS  days hr:min     m/sec    Flow   Depth
  -----------------------------------------------------------------------------
  C1                   CONDUIT     0.039     0  03:50      1.08    0.01    0.10
  C6                   CONDUIT     0.071     0  03:01      1.29    1.13    0.76
  C2                   CONDUIT     0.028     0  04:57      1.00    0.03    0.15
  C9                   CONDUIT     0.127     0  03:04      1.28    0.43    0.52
  C16                  CONDUIT     0.489     0  02:53      1.78    0.05    0.15
  C3                   CONDUIT     0.060     0  07:45      1.31    0.02    0.11
  C19                  CONDUIT     0.032     0  04:30      0.67    0.01    0.21
  C11                  CONDUIT     0.125     0  05:01      1.45    0.01    0.12
  C20                  CONDUIT     0.812     0  02:56      2.97    0.03    0.14
  C22                  CONDUIT     0.202     0  03:04      1.59    0.09    0.33
  C12                  CONDUIT     0.075     0  04:26      0.59    0.01    0.27
  C17                  CONDUIT     0.954     0  02:56      3.05    0.05    0.26
  C10                  CONDUIT     0.796     0  03:01      1.66    0.08    0.60
  C13                  CONDUIT     1.019     0  02:58      1.45    0.06    0.74
  C18                  CONDUIT     0.556     0  02:56      1.72    0.02    0.55
  C23                  CONDUIT     1.124     0  03:00      1.24    0.12    0.62
  C4                   CONDUIT     0.389     0  02:56      1.98    0.09    0.60
  C7                   CONDUIT     0.217     0  03:01      1.43    0.05    0.58
  C14                  CONDUIT     0.271     0  02:51      2.08    0.02    0.09
  C5                   CONDUIT     0.071     0  03:01      1.39    1.22    1.00
  C8                   CONDUIT     0.127     0  03:04      1.75    1.60    0.86
  C15                  CONDUIT     0.486     0  02:50      3.42    1.55    0.83
  C21                  CONDUIT     0.202     0  03:04      1.83    1.16    0.69
  V4                   ORIFICE     0.028     0  04:56                      0.35
  V5                   ORIFICE     0.039     0  03:02                      1.00
  V1                   ORIFICE     0.271     0  02:50                      1.00
  V6                   ORIFICE     0.075     0  02:53                      0.43
  V3                   ORIFICE     0.060     0  07:44                      0.65
  V2                   ORIFICE     0.032     0  04:28                      0.24
  
  
  ***************************
  Flow Classification Summary
  ***************************
  
  -------------------------------------------------------------------------------------
                      Adjusted    ---------- Fraction of Time in Flow Class ---------- 
                       /Actual         Up    Down  Sub   Sup   Up    Down  Norm  Inlet 
  Conduit               Length    Dry  Dry   Dry   Crit  Crit  Crit  Crit  Ltd   Ctrl  
  -------------------------------------------------------------------------------------
  C1                      1.00   0.00  0.00  0.00  0.00  1.00  0.00  0.00  0.93  0.00
  C6                      1.00   0.00  0.00  0.00  0.11  0.89  0.00  0.00  0.00  0.00
  C2                      1.00   0.00  0.00  0.00  0.08  0.91  0.00  0.00  0.97  0.00
  C9                      1.00   0.00  0.00  0.00  1.00  0.00  0.00  0.00  1.00  0.00
  C16                     1.00   0.00  0.00  0.00  0.56  0.44  0.00  0.00  0.40  0.00
  C3                      1.00   0.00  0.00  0.00  0.04  0.95  0.00  0.00  0.92  0.00
  C19                     1.00   0.00  0.00  0.00  1.00  0.00  0.00  0.00  1.00  0.00
  C11                     1.00   0.00  0.00  0.00  0.36  0.63  0.00  0.00  1.00  0.00
  C20                     1.00   0.00  0.00  0.00  0.53  0.47  0.00  0.00  0.98  0.00
  C22                     1.00   0.00  0.00  0.00  0.73  0.27  0.00  0.00  1.00  0.00
  C12                     1.00   0.00  0.00  0.00  1.00  0.00  0.00  0.00  1.00  0.00
  C17                     1.00   0.00  0.00  0.00  0.57  0.43  0.00  0.00  0.97  0.00
  C10                     1.00   0.00  0.00  0.00  0.96  0.04  0.00  0.00  0.97  0.00
  C13                     1.00   0.00  0.00  0.00  0.87  0.13  0.00  0.00  0.32  0.00
  C18                     1.00   0.00  0.00  0.00  0.94  0.06  0.00  0.00  0.97  0.00
  C23                     1.00   0.00  0.00  0.00  0.88  0.12  0.00  0.00  0.94  0.00
  C4                      1.00   0.00  0.00  0.00  0.96  0.04  0.00  0.00  0.98  0.00
  C7                      1.00   0.00  0.00  0.00  0.95  0.05  0.00  0.00  0.97  0.00
  C14                     1.00   0.00  0.00  0.00  0.00  0.99  0.00  0.00  0.29  0.00
  C5                      1.00   0.00  0.00  0.00  0.89  0.11  0.00  0.00  0.89  0.00
  C8                      1.00   0.00  0.00  0.00  0.13  0.87  0.00  0.00  0.00  0.00
  C15                     1.00   0.00  0.00  0.00  0.00  1.00  0.00  0.00  0.00  0.00
  C21                     1.00   0.00  0.00  0.00  0.00  1.00  0.00  0.00  0.00  0.00
  
  
  *************************
  Conduit Surcharge Summary
  *************************
  
  ----------------------------------------------------------------------------
                                                           Hours        Hours 
                         --------- Hours Full --------   Above Full   Capacity
  Conduit                Both Ends  Upstream  Dnstream   Normal Flow   Limited
  ----------------------------------------------------------------------------
  C6                          0.01      0.62      0.01      0.52         0.01
  C10                         0.01      0.01      5.69      0.01         0.01
  C13                         0.01      0.01      5.17      0.01         0.01
  C18                         0.01      0.01      5.21      0.01         0.01
  C23                         0.01      0.01      5.75      0.01         0.01
  C4                          0.01      0.01      5.91      0.01         0.01
  C7                          0.01      0.01      5.63      0.01         0.01
  C5                          0.66      0.66      0.76      0.72         0.63
  C8                          0.01      0.67      0.01      0.70         0.01
  C15                         0.01      0.61      0.01      0.69         0.01
  C21                         0.01      0.40      0.01      0.40         0.01
  

  Analysis begun on:  Fri Sep  3 16:45:54 2021
  Analysis ended on:  Fri Sep  3 16:45:54 2021
  Total elapsed time: < 1 sec