
  EPA STORM WATER MANAGEMENT MODEL - VERSION 5.1 (Build 5.3.0.dev0)
  --------------------------------------------------------------

  
  *********************************************************
  NOTE: The summary statistics displayed in this report are
  based on results found at every computational time step,  
  not just on results from each reporting time step.
  *********************************************************
  
  ****************
  Analysis Options
  ****************
  Flow Units ............... CMS
  Process Models:
    Rainfall/Runoff ........ YES
    RDII ................... NO
    Snowmelt ............... NO
    Groundwater ............ NO
    Flow Routing ........... YES
    Ponding Allowed ........ YES
    Water Quality .......... NO
  Infiltration Method ...... HORTON
  Flow Routing Method ...... DYNWAVE
  Surcharge Method ......... EXTRAN
  Starting Date ............ 08/28/2015 08:00:00
  Ending Date .............. 08/28/2015 15:50:00
  Antecedent Dry Days ...... 0.0
  Report Time Step ......... 00:01:00
  Wet Time Step ............ 00:01:00
  Dry Time Step ............ 00:01:00
  Routing Time Step ........ 5.00 sec
  Variable Time Step ....... YES
  Maximum Trials ........... 8
  Number of Threads ........ 1
  Head Tolerance ........... 0.001500 m
  
  
  **************************        Volume         Depth
  Runoff Quantity Continuity     hectare-m            mm
  **************************     ---------       -------
  Total Precipitation ......         2.292        12.720
  Evaporation Loss .........         0.000         0.000
  Infiltration Loss ........         0.000         0.000
  Surface Runoff ...........         2.269        12.589
  Final Storage ............         0.024         0.132
  Continuity Error (%) .....        -0.011
  
  
  **************************        Volume        Volume
  Flow Routing Continuity        hectare-m      10^6 ltr
  **************************     ---------     ---------
  Dry Weather Inflow .......         0.396         3.955
  Wet Weather Inflow .......         2.268        22.685
  Groundwater Inflow .......         0.000         0.000
  RDII Inflow ..............         0.000         0.000
  External Inflow ..........         0.000         0.000
  External Outflow .........         0.586         5.860
  Flooding Loss ............         1.032        10.321
  Evaporation Loss .........         0.000         0.000
  Exfiltration Loss ........         0.000         0.000
  Initial Stored Volume ....         0.000         0.000
  Final Stored Volume ......         0.805         8.048
  Continuity Error (%) .....         9.051
  
  
  *************************
  Highest Continuity Errors
  *************************
  Node T2 (26.22%)
  Node T3 (19.25%)
  Node T4 (17.98%)
  Node T5 (15.87%)
  Node T6 (12.03%)
  
  
  ***************************
  Time-Step Critical Elements
  ***************************
  None
  
  
  ********************************
  Highest Flow Instability Indexes
  ********************************
  Link C13 (1)
  
  
  *************************
  Routing Time Step Summary
  *************************
  Minimum Time Step           :     4.50 sec
  Average Time Step           :     5.00 sec
  Maximum Time Step           :     5.00 sec
  Percent in Steady State     :     0.00
  Average Iterations per Step :     2.33
  Percent Not Converging      :     0.80
  
  
  ***************************
  Subcatchment Runoff Summary
  ***************************
  
  ------------------------------------------------------------------------------------------------------------------------------
                            Total      Total      Total      Total     Imperv       Perv      Total       Total     Peak  Runoff
                           Precip      Runon       Evap      Infil     Runoff     Runoff     Runoff      Runoff   Runoff   Coeff
  Subcatchment                 mm         mm         mm         mm         mm         mm         mm    10^6 ltr      CMS
  ------------------------------------------------------------------------------------------------------------------------------
  SC01                      12.72       0.00       0.00       0.00      12.63       0.00      12.63        4.17     0.83   0.993
  SC02                      12.72       0.00       0.00       0.00      12.63       0.00      12.63        2.87     0.56   0.993
  SC03                      12.72       0.00       0.00       0.00      12.65       0.00      12.65        2.28     0.47   0.995
  SC04                      12.72       0.00       0.00       0.00      12.52       0.00      12.52        0.86     0.15   0.985
  SC05                      12.72       0.00       0.00       0.00      12.63       0.00      12.63        1.97     0.39   0.993
  SC06                      12.72       0.00       0.00       0.00      12.47       0.00      12.47        4.06     0.69   0.980
  SC07                      12.72       0.00       0.00       0.00      12.52       0.00      12.52        0.59     0.10   0.985
  SC08                      12.72       0.00       0.00       0.00      12.60       0.00      12.60        3.53     0.66   0.991
  SC09                      12.72       0.00       0.00       0.00      12.58       0.00      12.58        0.87     0.16   0.989
  SC010                     12.72       0.00       0.00       0.00      12.61       0.00      12.61        1.48     0.28   0.991
  
  
  ******************
  Node Depth Summary
  ******************
  
  ---------------------------------------------------------------------------------
                                 Average  Maximum  Maximum  Time of Max    Reported
                                   Depth    Depth      HGL   Occurrence   Max Depth
  Node                 Type       Meters   Meters   Meters  days hr:min      Meters
  ---------------------------------------------------------------------------------
  J1                   JUNCTION     0.09     0.21    34.21     0  02:47        0.21
  J3                   JUNCTION     0.10     0.11    18.11     0  03:24        0.11
  CSO7                 JUNCTION     0.31     1.20    35.20     0  01:26        1.20
  J5                   JUNCTION     0.08     0.16    32.16     0  02:50        0.16
  CSO9                 JUNCTION     0.36     2.00    42.00     0  02:36        2.00
  J8                   JUNCTION     0.13     0.30    36.30     0  02:51        0.30
  CSO8                 JUNCTION     0.40     2.00    34.00     0  01:22        2.00
  J10                  JUNCTION     0.12     0.30    29.30     0  02:46        0.30
  J13                  JUNCTION     0.08     0.20    29.20     0  02:47        0.20
  J15                  JUNCTION     0.18     0.37    15.37     0  02:50        0.37
  J16                  JUNCTION     0.08     0.22    30.22     0  02:46        0.22
  CSO10                JUNCTION     0.22     1.00    31.00     0  01:19        1.00
  J12                  JUNCTION     0.71     1.08    27.08     0  03:02        1.07
  J4                   JUNCTION     0.24     1.29    34.29     0  01:26        0.77
  J6                   JUNCTION     0.06     0.07    25.07     0  03:38        0.07
  J2                   JUNCTION     0.07     0.08    25.08     0  03:13        0.08
  J19                  JUNCTION     0.14     0.17     8.17     0  01:55        0.17
  J9                   JUNCTION     0.10     0.11    29.11     0  03:41        0.11
  J14                  JUNCTION     0.09     0.10    20.10     0  06:38        0.10
  J17                  JUNCTION     0.06     0.08    20.08     0  03:46        0.08
  J7                   JUNCTION     0.10     0.23    39.23     0  03:03        0.23
  J11                  JUNCTION     0.12     0.30    31.30     0  01:34        0.30
  J18                  JUNCTION     0.07     0.16    29.16     0  03:03        0.16
  Out_to_WWTP          OUTFALL      0.14     0.17     6.17     0  03:57        0.17
  T5                   STORAGE      3.74     5.00    32.00     0  02:26        5.00
  T4                   STORAGE      3.63     5.00    32.00     0  02:49        5.00
  T6                   STORAGE      3.89     5.00    36.00     0  02:04        5.00
  T3                   STORAGE      3.72     5.00    27.00     0  02:57        5.00
  T2                   STORAGE      3.69     5.00    26.00     0  02:45        5.00
  T1                   STORAGE      3.49     5.00    15.00     0  01:54        5.00
  
  
  *******************
  Node Inflow Summary
  *******************
  
  -------------------------------------------------------------------------------------------------
                                  Maximum  Maximum                  Lateral       Total        Flow
                                  Lateral    Total  Time of Max      Inflow      Inflow     Balance
                                   Inflow   Inflow   Occurrence      Volume      Volume       Error
  Node                 Type           CMS      CMS  days hr:min    10^6 ltr    10^6 ltr     Percent
  -------------------------------------------------------------------------------------------------
  J1                   JUNCTION     0.406    0.406     0  02:47        2.53        2.53      -0.012
  J3                   JUNCTION     0.000    0.127     0  03:23           0        2.85       1.026
  CSO7                 JUNCTION     0.115    0.115     0  02:49       0.885       0.885       0.060
  J5                   JUNCTION     0.156    0.227     0  02:49       0.992         1.8       0.064
  CSO9                 JUNCTION     0.165    0.165     0  02:48        1.06        1.06       0.043
  J8                   JUNCTION     0.721    0.848     0  02:50           5        6.02       0.059
  CSO8                 JUNCTION     0.673    0.673     0  02:48        3.82        3.82       0.014
  J10                  JUNCTION     0.488    0.975     0  02:45        2.66        6.27      -0.066
  J13                  JUNCTION     0.580    0.580     0  02:47        3.34        3.34      -0.218
  J15                  JUNCTION     0.000    1.203     0  02:47           0        9.81       0.688
  J16                  JUNCTION     0.847    0.847     0  02:46        4.72        4.72      -0.034
  CSO10                JUNCTION     0.285    0.285     0  02:47        1.62        1.62       0.012
  J12                  JUNCTION     0.000    1.047     0  02:46           0        8.02      11.258
  J4                   JUNCTION     0.000    0.074     0  01:26           0        0.81       0.403
  J6                   JUNCTION     0.000    0.028     0  02:50           0        0.62       0.632
  J2                   JUNCTION     0.000    0.039     0  02:26           0       0.895       0.565
  J19                  JUNCTION     0.000    0.271     0  01:54           0        5.87       0.177
  J9                   JUNCTION     0.000    0.075     0  02:04           0        1.76       1.010
  J14                  JUNCTION     0.000    0.060     0  02:57           0        1.35       0.327
  J17                  JUNCTION     0.000    0.033     0  02:46           0       0.745       0.895
  J7                   JUNCTION     0.000    0.127     0  03:03           0        1.02       0.308
  J11                  JUNCTION     0.000    0.486     0  01:34           0        3.61       0.196
  J18                  JUNCTION     0.000    0.202     0  03:03           0        1.52       0.048
  Out_to_WWTP          OUTFALL      0.000    0.271     0  01:56           0        5.86       0.000
  T5                   STORAGE      0.000    0.406     0  02:47           0        2.53      18.864
  T4                   STORAGE      0.000    0.227     0  02:50           0         1.8      21.929
  T6                   STORAGE      0.000    0.848     0  02:51           0        6.02      13.670
  T3                   STORAGE      0.000    1.369     0  03:05           0         7.2      23.846
  T2                   STORAGE      0.000    0.579     0  02:47           0        3.35      35.535
  T1                   STORAGE      0.000    1.187     0  02:50           0        9.74       5.443
  
  
  **********************
  Node Surcharge Summary
  **********************
  
  Surcharging occurs when water rises above the top of the highest conduit.
  ---------------------------------------------------------------------
                                               Max. Height   Min. Depth
                                   Hours       Above Crown    Below Rim
  Node                 Type      Surcharged         Meters       Meters
  ---------------------------------------------------------------------
  CSO7                 JUNCTION        1.90          0.945        0.000
  CSO9                 JUNCTION        1.90          1.682        0.000
  CSO8                 JUNCTION        1.89          1.547        0.000
  CSO10                JUNCTION        1.02          0.560        0.000
  J4                   JUNCTION        1.87          0.994        0.706
  
  
  *********************
  Node Flooding Summary
  *********************
  
  Flooding refers to all water that overflows a node, whether it ponds or not.
  --------------------------------------------------------------------------
                                                             Total   Maximum
                                 Maximum   Time of Max       Flood    Ponded
                        Hours       Rate    Occurrence      Volume     Depth
  Node                 Flooded       CMS   days hr:min    10^6 ltr    Meters
  --------------------------------------------------------------------------
  CSO7                    1.10     0.043      0  02:49       0.074     0.000
  CSO9                    0.44     0.038      0  02:48       0.040     0.000
  CSO8                    0.66     0.188      0  02:48       0.210     0.000
  CSO10                   0.72     0.083      0  02:47       0.097     0.000
  T5                      1.52     0.366      0  02:47       0.833     0.000
  T4                      2.08     0.199      0  02:50       0.412     0.000
  T6                      3.09     0.772      0  02:51       3.028     0.000
  T3                      4.28     1.309      0  03:05       1.864     0.000
  T2                      1.61     0.546      0  02:47       0.808     0.000
  T1                      1.88     0.917      0  02:50       2.955     0.000
  
  
  **********************
  Storage Volume Summary
  **********************
  
  --------------------------------------------------------------------------------------------------
                         Average     Avg  Evap Exfil       Maximum     Max    Time of Max    Maximum
                          Volume    Pcnt  Pcnt  Pcnt        Volume    Pcnt     Occurrence    Outflow
  Storage Unit           1000 m3    Full  Loss  Loss       1000 m3    Full    days hr:min        CMS
  --------------------------------------------------------------------------------------------------
  T5                       0.374      75     0     0         0.500     100       0  02:26      0.039
  T4                       0.363      73     0     0         0.500     100       0  02:49      0.028
  T6                       0.466      78     0     0         0.600     100       0  02:04      0.075
  T3                       1.933      74     0     0         2.600     100       0  02:57      0.133
  T2                       0.739      74     0     0         1.000     100       0  02:45      0.033
  T1                       0.488      70     0     0         0.700     100       0  01:54      0.271
  
  
  ***********************
  Outfall Loading Summary
  ***********************
  
  -----------------------------------------------------------
                         Flow       Avg       Max       Total
                         Freq      Flow      Flow      Volume
  Outfall Node           Pcnt       CMS       CMS    10^6 ltr
  -----------------------------------------------------------
  Out_to_WWTP           99.01     0.210     0.271       5.860
  -----------------------------------------------------------
  System                99.01     0.210     0.271       5.860
  
  
  ********************
  Link Flow Summary
  ********************
  
  -----------------------------------------------------------------------------
                                 Maximum  Time of Max   Maximum    Max/    Max/
                                  |Flow|   Occurrence   |Veloc|    Full    Full
  Link                 Type          CMS  days hr:min     m/sec    Flow   Depth
  -----------------------------------------------------------------------------
  C1                   CONDUIT     0.039     0  03:13      1.07    0.01    0.10
  C6                   CONDUIT     0.071     0  02:50      1.29    1.14    0.77
  C2                   CONDUIT     0.028     0  03:38      1.01    0.03    0.16
  C9                   CONDUIT     0.127     0  03:03      1.32    0.43    0.53
  C16                  CONDUIT     0.489     0  02:42      1.78    0.05    0.15
  C3                   CONDUIT     0.060     0  05:49      1.31    0.02    0.11
  C19                  CONDUIT     0.033     0  03:46      0.69    0.01    0.22
  C11                  CONDUIT     0.127     0  03:24      1.44    0.01    0.12
  C20                  CONDUIT     0.846     0  02:47      3.19    0.03    0.15
  C22                  CONDUIT     0.202     0  03:03      1.62    0.09    0.33
  C12                  CONDUIT     0.075     0  03:41      0.59    0.01    0.30
  C17                  CONDUIT     0.971     0  02:46      3.09    0.05    0.34
  C10                  CONDUIT     0.848     0  02:51      1.66    0.09    0.60
  C13                  CONDUIT     1.369     0  03:05      2.08    0.08    0.77
  C18                  CONDUIT     0.579     0  02:47      1.72    0.02    0.55
  C23                  CONDUIT     1.187     0  02:50      1.59    0.13    0.62
  C4                   CONDUIT     0.406     0  02:47      1.98    0.10    0.61
  C7                   CONDUIT     0.227     0  02:50      1.43    0.06    0.58
  C14                  CONDUIT     0.271     0  01:56      2.08    0.02    0.09
  C5                   CONDUIT     0.074     0  01:26      1.44    1.27    1.00
  C8                   CONDUIT     0.127     0  03:03      1.75    1.60    0.86
  C15                  CONDUIT     0.486     0  01:34      3.43    1.55    0.83
  C21                  CONDUIT     0.202     0  03:03      1.83    1.16    0.69
  V4                   ORIFICE     0.028     0  02:50                      0.35
  V5                   ORIFICE     0.039     0  02:26                      1.00
  V1                   ORIFICE     0.271     0  01:54                      1.00
  V6                   ORIFICE     0.075     0  02:04                      0.43
  V3                   ORIFICE     0.060     0  02:57                      0.65
  V2                   ORIFICE     0.033     0  02:46                      0.24
  
  
  ***************************
  Flow Classification Summary
  ***************************
  
  -------------------------------------------------------------------------------------
                      Adjusted    ---------- Fraction of Time in Flow Class ---------- 
                       /Actual         Up    Down  Sub   Sup   Up    Down  Norm  Inlet 
  Conduit               Length    Dry  Dry   Dry   Crit  Crit  Crit  Crit  Ltd   Ctrl  
  -------------------------------------------------------------------------------------
  C1                      1.00   0.00  0.00  0.00  0.00  1.00  0.00  0.00  0.94  0.00
  C6                      1.00   0.00  0.00  0.00  0.26  0.74  0.00  0.00  0.00  0.00
  C2                      1.00   0.00  0.00  0.00  0.07  0.93  0.00  0.00  0.95  0.00
  C9                      1.00   0.00  0.00  0.00  0.98  0.02  0.00  0.00  1.00  0.00
  C16                     1.00   0.00  0.00  0.00  0.54  0.46  0.00  0.00  0.39  0.00
  C3                      1.00   0.00  0.00  0.00  0.05  0.95  0.00  0.00  0.94  0.00
  C19                     1.00   0.00  0.00  0.00  1.00  0.00  0.00  0.00  1.00  0.00
  C11                     1.00   0.00  0.00  0.00  0.37  0.63  0.00  0.00  1.00  0.00
  C20                     1.00   0.00  0.00  0.00  0.53  0.47  0.00  0.00  0.98  0.00
  C22                     1.00   0.00  0.00  0.00  0.70  0.30  0.00  0.00  1.00  0.00
  C12                     1.00   0.00  0.00  0.00  1.00  0.00  0.00  0.00  1.00  0.00
  C17                     1.00   0.00  0.00  0.00  0.65  0.35  0.00  0.00  0.93  0.00
  C10                     1.00   0.00  0.00  0.00  0.96  0.04  0.00  0.00  0.97  0.00
  C13                     1.00   0.00  0.00  0.00  0.83  0.17  0.00  0.00  0.23  0.00
  C18                     1.00   0.00  0.00  0.00  0.92  0.08  0.00  0.00  0.97  0.00
  C23                     1.00   0.00  0.00  0.00  0.85  0.15  0.00  0.00  0.94  0.00
  C4                      1.00   0.00  0.00  0.00  0.96  0.04  0.00  0.00  0.98  0.00
  C7                      1.00   0.00  0.00  0.00  0.94  0.06  0.00  0.00  0.97  0.00
  C14                     1.00   0.00  0.00  0.00  0.00  0.99  0.00  0.00  0.29  0.00
  C5                      1.00   0.00  0.00  0.00  0.93  0.07  0.00  0.00  0.70  0.00
  C8                      1.00   0.00  0.00  0.00  0.26  0.74  0.00  0.00  0.00  0.00
  C15                     1.00   0.00  0.00  0.00  0.00  1.00  0.00  0.00  0.00  0.00
  C21                     1.00   0.00  0.00  0.00  0.01  0.99  0.00  0.00  0.00  0.00
  
  
  *************************
  Conduit Surcharge Summary
  *************************
  
  ----------------------------------------------------------------------------
                                                           Hours        Hours 
                         --------- Hours Full --------   Above Full   Capacity
  Conduit                Both Ends  Upstream  Dnstream   Normal Flow   Limited
  ----------------------------------------------------------------------------
  C6                          0.01      1.87      0.01      1.75         0.01
  C10                         0.01      0.01      6.34      0.01         0.01
  C13                         0.01      0.01      6.02      0.01         0.01
  C18                         0.01      0.01      6.11      0.01         0.01
  C23                         0.01      0.01      6.40      0.01         0.01
  C4                          0.01      0.01      6.47      0.01         0.01
  C7                          0.01      0.01      6.29      0.01         0.01
  C5                          1.88      1.90      1.98      1.93         1.85
  C8                          0.01      1.90      0.01      1.92         0.01
  C15                         0.01      1.89      0.01      1.92         0.01
  C21                         0.01      1.02      0.01      1.00         0.01
  

  Analysis begun on:  Fri Sep  3 16:48:56 2021
  Analysis ended on:  Fri Sep  3 16:48:56 2021
  Total elapsed time: < 1 sec