
  EPA STORM WATER MANAGEMENT MODEL - VERSION 5.1 (Build 5.3.0.dev0)
  --------------------------------------------------------------

  
  *********************************************************
  NOTE: The summary statistics displayed in this report are
  based on results found at every computational time step,  
  not just on results from each reporting time step.
  *********************************************************
  
  ****************
  Analysis Options
  ****************
  Flow Units ............... CMS
  Process Models:
    Rainfall/Runoff ........ YES
    RDII ................... NO
    Snowmelt ............... NO
    Groundwater ............ NO
    Flow Routing ........... YES
    Ponding Allowed ........ YES
    Water Quality .......... NO
  Infiltration Method ...... HORTON
  Flow Routing Method ...... DYNWAVE
  Surcharge Method ......... EXTRAN
  Starting Date ............ 08/28/2015 08:00:00
  Ending Date .............. 08/28/2015 15:50:00
  Antecedent Dry Days ...... 0.0
  Report Time Step ......... 00:01:00
  Wet Time Step ............ 00:01:00
  Dry Time Step ............ 00:01:00
  Routing Time Step ........ 5.00 sec
  Variable Time Step ....... YES
  Maximum Trials ........... 8
  Number of Threads ........ 1
  Head Tolerance ........... 0.001500 m
  
  
  **************************        Volume         Depth
  Runoff Quantity Continuity     hectare-m            mm
  **************************     ---------       -------
  Total Precipitation ......         1.086         6.029
  Evaporation Loss .........         0.000         0.000
  Infiltration Loss ........         0.000         0.000
  Surface Runoff ...........         1.063         5.900
  Final Storage ............         0.023         0.130
  Continuity Error (%) .....        -0.008
  
  
  **************************        Volume        Volume
  Flow Routing Continuity        hectare-m      10^6 ltr
  **************************     ---------     ---------
  Dry Weather Inflow .......         0.396         3.955
  Wet Weather Inflow .......         1.063        10.632
  Groundwater Inflow .......         0.000         0.000
  RDII Inflow ..............         0.000         0.000
  External Inflow ..........         0.000         0.000
  External Outflow .........         0.511         5.110
  Flooding Loss ............         0.091         0.906
  Evaporation Loss .........         0.000         0.000
  Exfiltration Loss ........         0.000         0.000
  Initial Stored Volume ....         0.000         0.000
  Final Stored Volume ......         0.670         6.697
  Continuity Error (%) .....        12.858
  
  
  *************************
  Highest Continuity Errors
  *************************
  Node T2 (33.88%)
  Node T3 (26.54%)
  Node T5 (24.13%)
  Node T4 (23.19%)
  Node T6 (20.93%)
  
  
  ***************************
  Time-Step Critical Elements
  ***************************
  None
  
  
  ********************************
  Highest Flow Instability Indexes
  ********************************
  All links are stable.
  
  
  *************************
  Routing Time Step Summary
  *************************
  Minimum Time Step           :     4.50 sec
  Average Time Step           :     5.00 sec
  Maximum Time Step           :     5.00 sec
  Percent in Steady State     :     0.00
  Average Iterations per Step :     2.08
  Percent Not Converging      :     0.43
  
  
  ***************************
  Subcatchment Runoff Summary
  ***************************
  
  ------------------------------------------------------------------------------------------------------------------------------
                            Total      Total      Total      Total     Imperv       Perv      Total       Total     Peak  Runoff
                           Precip      Runon       Evap      Infil     Runoff     Runoff     Runoff      Runoff   Runoff   Coeff
  Subcatchment                 mm         mm         mm         mm         mm         mm         mm    10^6 ltr      CMS
  ------------------------------------------------------------------------------------------------------------------------------
  SC01                       6.03       0.00       0.00       0.00       5.94       0.00       5.94        1.96     0.47   0.986
  SC02                       6.03       0.00       0.00       0.00       5.94       0.00       5.94        1.35     0.32   0.985
  SC03                       6.03       0.00       0.00       0.00       5.96       0.00       5.96        1.07     0.27   0.989
  SC04                       6.03       0.00       0.00       0.00       5.84       0.00       5.84        0.40     0.09   0.968
  SC05                       6.03       0.00       0.00       0.00       5.94       0.00       5.94        0.93     0.22   0.985
  SC06                       6.03       0.00       0.00       0.00       5.79       0.00       5.79        1.88     0.38   0.960
  SC07                       6.03       0.00       0.00       0.00       5.84       0.00       5.84        0.28     0.06   0.968
  SC08                       6.03       0.00       0.00       0.00       5.91       0.00       5.91        1.66     0.38   0.981
  SC09                       6.03       0.00       0.00       0.00       5.89       0.00       5.89        0.41     0.09   0.977
  SC010                      6.03       0.00       0.00       0.00       5.92       0.00       5.92        0.70     0.16   0.981
  
  
  ******************
  Node Depth Summary
  ******************
  
  ---------------------------------------------------------------------------------
                                 Average  Maximum  Maximum  Time of Max    Reported
                                   Depth    Depth      HGL   Occurrence   Max Depth
  Node                 Type       Meters   Meters   Meters  days hr:min      Meters
  ---------------------------------------------------------------------------------
  J1                   JUNCTION     0.07     0.16    34.16     0  03:01        0.16
  J3                   JUNCTION     0.09     0.11    18.11     0  05:22        0.11
  CSO7                 JUNCTION     0.11     1.20    35.20     0  03:01        1.08
  J5                   JUNCTION     0.06     0.13    32.13     0  03:02        0.13
  CSO9                 JUNCTION     0.12     0.94    40.94     0  03:01        0.94
  J8                   JUNCTION     0.11     0.23    36.23     0  03:01        0.23
  CSO8                 JUNCTION     0.14     1.09    33.09     0  03:01        1.09
  J10                  JUNCTION     0.09     0.24    29.24     0  03:01        0.24
  J13                  JUNCTION     0.06     0.16    29.16     0  03:01        0.16
  J15                  JUNCTION     0.15     0.29    15.29     0  03:02        0.29
  J16                  JUNCTION     0.07     0.17    30.17     0  03:01        0.17
  CSO10                JUNCTION     0.12     0.37    30.37     0  03:01        0.37
  J12                  JUNCTION     0.21     0.45    26.45     0  07:45        0.45
  J4                   JUNCTION     0.13     1.18    34.18     0  03:01        0.72
  J6                   JUNCTION     0.06     0.07    25.07     0  05:07        0.07
  J2                   JUNCTION     0.06     0.08    25.08     0  04:08        0.08
  J19                  JUNCTION     0.13     0.17     8.17     0  03:05        0.17
  J9                   JUNCTION     0.09     0.11    29.11     0  04:23        0.11
  J14                  JUNCTION     0.08     0.10    20.10     0  07:50        0.10
  J17                  JUNCTION     0.06     0.07    20.07     0  04:53        0.07
  J7                   JUNCTION     0.08     0.19    39.19     0  03:01        0.19
  J11                  JUNCTION     0.10     0.26    31.26     0  03:01        0.26
  J18                  JUNCTION     0.05     0.15    29.15     0  03:02        0.15
  Out_to_WWTP          OUTFALL      0.13     0.17     6.17     0  03:45        0.17
  T5                   STORAGE      2.89     4.40    31.40     0  04:06        4.40
  T4                   STORAGE      2.47     3.82    30.82     0  05:05        3.82
  T6                   STORAGE      3.38     5.00    36.00     0  03:06        5.00
  T3                   STORAGE      2.73     4.45    26.45     0  07:50        4.45
  T2                   STORAGE      2.27     3.39    24.39     0  04:51        3.39
  T1                   STORAGE      2.79     5.00    15.00     0  03:04        5.00
  
  
  *******************
  Node Inflow Summary
  *******************
  
  -------------------------------------------------------------------------------------------------
                                  Maximum  Maximum                  Lateral       Total        Flow
                                  Lateral    Total  Time of Max      Inflow      Inflow     Balance
                                   Inflow   Inflow   Occurrence      Volume      Volume       Error
  Node                 Type           CMS      CMS  days hr:min    10^6 ltr    10^6 ltr     Percent
  -------------------------------------------------------------------------------------------------
  J1                   JUNCTION     0.243    0.243     0  03:01        1.49        1.49       0.035
  J3                   JUNCTION     0.000    0.116     0  05:21           0         2.4       1.138
  CSO7                 JUNCTION     0.070    0.070     0  03:01       0.568       0.568       0.081
  J5                   JUNCTION     0.090    0.155     0  03:01        0.53        1.09       0.154
  CSO9                 JUNCTION     0.098    0.098     0  03:01       0.602       0.602       0.075
  J8                   JUNCTION     0.420    0.512     0  03:01        2.82        3.42       0.155
  CSO8                 JUNCTION     0.389    0.389     0  03:01        1.95        1.95       0.027
  J10                  JUNCTION     0.285    0.658     0  03:01        1.46         3.4       0.146
  J13                  JUNCTION     0.340    0.340     0  03:01        1.82        1.82      -0.189
  J15                  JUNCTION     0.000    0.762     0  03:01           0        6.29       1.031
  J16                  JUNCTION     0.494    0.494     0  03:01        2.52        2.52       0.010
  CSO10                JUNCTION     0.166    0.166     0  03:01       0.834       0.834       0.050
  J12                  JUNCTION     0.000    0.713     0  03:01           0        4.98       5.933
  J4                   JUNCTION     0.000    0.070     0  03:01           0       0.567       0.600
  J6                   JUNCTION     0.000    0.025     0  05:05           0       0.497       0.729
  J2                   JUNCTION     0.000    0.037     0  04:06           0       0.772       0.630
  J19                  JUNCTION     0.000    0.271     0  03:04           0        5.12       0.193
  J9                   JUNCTION     0.000    0.075     0  03:06           0         1.6       1.066
  J14                  JUNCTION     0.000    0.057     0  07:50           0        1.14       0.371
  J17                  JUNCTION     0.000    0.027     0  04:51           0       0.576       0.965
  J7                   JUNCTION     0.000    0.098     0  03:01           0       0.602       0.528
  J11                  JUNCTION     0.000    0.389     0  03:01           0        1.95       0.311
  J18                  JUNCTION     0.000    0.164     0  03:01           0       0.834       0.125
  Out_to_WWTP          OUTFALL      0.000    0.271     0  03:06           0        5.11       0.000
  T5                   STORAGE      0.000    0.240     0  03:01           0        1.49      31.798
  T4                   STORAGE      0.000    0.151     0  03:02           0        1.09      30.186
  T6                   STORAGE      0.000    0.503     0  03:01           0        3.42      26.466
  T3                   STORAGE      0.000    0.693     0  03:03           0         4.7      36.122
  T2                   STORAGE      0.000    0.336     0  03:01           0        1.82      51.232
  T1                   STORAGE      0.000    0.731     0  03:02           0        6.22       7.597
  
  
  **********************
  Node Surcharge Summary
  **********************
  
  Surcharging occurs when water rises above the top of the highest conduit.
  ---------------------------------------------------------------------
                                               Max. Height   Min. Depth
                                   Hours       Above Crown    Below Rim
  Node                 Type      Surcharged         Meters       Meters
  ---------------------------------------------------------------------
  CSO7                 JUNCTION        0.17          0.945        0.000
  CSO9                 JUNCTION        0.22          0.620        1.062
  CSO8                 JUNCTION        0.17          0.638        0.909
  J4                   JUNCTION        0.14          0.876        0.824
  
  
  *********************
  Node Flooding Summary
  *********************
  
  Flooding refers to all water that overflows a node, whether it ponds or not.
  --------------------------------------------------------------------------
                                                             Total   Maximum
                                 Maximum   Time of Max       Flood    Ponded
                        Hours       Rate    Occurrence      Volume     Depth
  Node                 Flooded       CMS   days hr:min    10^6 ltr    Meters
  --------------------------------------------------------------------------
  CSO7                    0.01     0.003      0  03:01       0.000     0.000
  T6                      1.95     0.372      0  03:06       0.596     0.000
  T1                      0.54     0.449      0  03:04       0.310     0.000
  
  
  **********************
  Storage Volume Summary
  **********************
  
  --------------------------------------------------------------------------------------------------
                         Average     Avg  Evap Exfil       Maximum     Max    Time of Max    Maximum
                          Volume    Pcnt  Pcnt  Pcnt        Volume    Pcnt     Occurrence    Outflow
  Storage Unit           1000 m3    Full  Loss  Loss       1000 m3    Full    days hr:min        CMS
  --------------------------------------------------------------------------------------------------
  T5                       0.289      58     0     0         0.440      88       0  04:06      0.037
  T4                       0.247      49     0     0         0.382      76       0  05:05      0.025
  T6                       0.405      68     0     0         0.600     100       0  03:06      0.075
  T3                       1.419      55     0     0         2.315      89       0  07:50      0.057
  T2                       0.455      45     0     0         0.678      68       0  04:51      0.027
  T1                       0.390      56     0     0         0.700     100       0  03:04      0.271
  
  
  ***********************
  Outfall Loading Summary
  ***********************
  
  -----------------------------------------------------------
                         Flow       Avg       Max       Total
                         Freq      Flow      Flow      Volume
  Outfall Node           Pcnt       CMS       CMS    10^6 ltr
  -----------------------------------------------------------
  Out_to_WWTP           99.01     0.183     0.271       5.109
  -----------------------------------------------------------
  System                99.01     0.183     0.271       5.109
  
  
  ********************
  Link Flow Summary
  ********************
  
  -----------------------------------------------------------------------------
                                 Maximum  Time of Max   Maximum    Max/    Max/
                                  |Flow|   Occurrence   |Veloc|    Full    Full
  Link                 Type          CMS  days hr:min     m/sec    Flow   Depth
  -----------------------------------------------------------------------------
  C1                   CONDUIT     0.037     0  04:08      1.04    0.01    0.09
  C6                   CONDUIT     0.068     0  03:02      1.29    1.08    0.72
  C2                   CONDUIT     0.025     0  05:07      0.94    0.03    0.15
  C9                   CONDUIT     0.094     0  03:01      1.17    0.32    0.43
  C16                  CONDUIT     0.377     0  03:01      1.63    0.04    0.13
  C3                   CONDUIT     0.057     0  07:50      1.30    0.02    0.10
  C19                  CONDUIT     0.027     0  04:53      0.62    0.01    0.18
  C11                  CONDUIT     0.116     0  05:22      1.42    0.01    0.10
  C20                  CONDUIT     0.488     0  03:01      2.44    0.02    0.11
  C22                  CONDUIT     0.161     0  03:02      1.46    0.07    0.27
  C12                  CONDUIT     0.075     0  04:23      1.04    0.01    0.14
  C17                  CONDUIT     0.643     0  03:01      2.69    0.03    0.13
  C10                  CONDUIT     0.503     0  03:01      1.66    0.05    0.58
  C13                  CONDUIT     0.693     0  03:03      1.45    0.04    0.61
  C18                  CONDUIT     0.336     0  03:01      1.72    0.01    0.54
  C23                  CONDUIT     0.731     0  03:02      1.24    0.08    0.60
  C4                   CONDUIT     0.240     0  03:01      1.98    0.06    0.58
  C7                   CONDUIT     0.151     0  03:02      1.43    0.04    0.57
  C14                  CONDUIT     0.271     0  03:06      2.08    0.02    0.09
  C5                   CONDUIT     0.070     0  03:01      1.37    1.20    1.00
  C8                   CONDUIT     0.098     0  03:01      1.43    1.24    0.81
  C15                  CONDUIT     0.389     0  03:01      2.85    1.24    0.79
  C21                  CONDUIT     0.164     0  03:01      1.76    0.94    0.59
  V4                   ORIFICE     0.025     0  05:05                      0.35
  V5                   ORIFICE     0.037     0  04:06                      1.00
  V1                   ORIFICE     0.271     0  03:04                      1.00
  V6                   ORIFICE     0.075     0  03:06                      0.43
  V3                   ORIFICE     0.057     0  07:50                      0.65
  V2                   ORIFICE     0.027     0  04:51                      0.24
  
  
  ***************************
  Flow Classification Summary
  ***************************
  
  -------------------------------------------------------------------------------------
                      Adjusted    ---------- Fraction of Time in Flow Class ---------- 
                       /Actual         Up    Down  Sub   Sup   Up    Down  Norm  Inlet 
  Conduit               Length    Dry  Dry   Dry   Crit  Crit  Crit  Crit  Ltd   Ctrl  
  -------------------------------------------------------------------------------------
  C1                      1.00   0.00  0.00  0.00  0.00  1.00  0.00  0.00  0.93  0.00
  C6                      1.00   0.00  0.00  0.00  0.05  0.95  0.00  0.00  0.00  0.00
  C2                      1.00   0.00  0.00  0.00  0.13  0.87  0.00  0.00  0.97  0.00
  C9                      1.00   0.00  0.00  0.00  1.00  0.00  0.00  0.00  1.00  0.00
  C16                     1.00   0.00  0.00  0.00  0.57  0.43  0.00  0.00  0.46  0.00
  C3                      1.00   0.00  0.00  0.00  0.04  0.95  0.00  0.00  0.88  0.00
  C19                     1.00   0.00  0.00  0.00  1.00  0.00  0.00  0.00  1.00  0.00
  C11                     1.00   0.00  0.00  0.00  0.35  0.65  0.00  0.00  1.00  0.00
  C20                     1.00   0.00  0.00  0.00  0.52  0.48  0.00  0.00  0.98  0.00
  C22                     1.00   0.00  0.00  0.00  0.76  0.24  0.00  0.00  1.00  0.00
  C12                     1.00   0.00  0.00  0.00  0.86  0.14  0.00  0.00  1.00  0.00
  C17                     1.00   0.00  0.00  0.00  0.38  0.62  0.00  0.00  0.97  0.00
  C10                     1.00   0.00  0.00  0.00  0.96  0.04  0.00  0.00  0.97  0.00
  C13                     1.00   0.00  0.00  0.00  0.85  0.15  0.00  0.00  0.52  0.00
  C18                     1.00   0.00  0.00  0.00  0.94  0.06  0.00  0.00  0.97  0.00
  C23                     1.00   0.00  0.00  0.00  0.88  0.12  0.00  0.00  0.94  0.00
  C4                      1.00   0.00  0.00  0.00  0.96  0.04  0.00  0.00  0.98  0.00
  C7                      1.00   0.00  0.00  0.00  0.95  0.05  0.00  0.00  0.97  0.00
  C14                     1.00   0.00  0.00  0.00  0.00  0.99  0.00  0.00  0.35  0.00
  C5                      1.00   0.00  0.00  0.00  0.89  0.11  0.00  0.00  0.95  0.00
  C8                      1.00   0.00  0.00  0.00  0.07  0.93  0.00  0.00  0.00  0.00
  C15                     1.00   0.00  0.00  0.00  0.00  1.00  0.00  0.00  0.00  0.00
  C21                     1.00   0.00  0.00  0.00  0.00  1.00  0.00  0.00  0.00  0.00
  
  
  *************************
  Conduit Surcharge Summary
  *************************
  
  ----------------------------------------------------------------------------
                                                           Hours        Hours 
                         --------- Hours Full --------   Above Full   Capacity
  Conduit                Both Ends  Upstream  Dnstream   Normal Flow   Limited
  ----------------------------------------------------------------------------
  C6                          0.01      0.14      0.01      0.04         0.01
  C10                         0.01      0.01      5.62      0.01         0.01
  C13                         0.01      0.01      5.02      0.01         0.01
  C18                         0.01      0.01      5.05      0.01         0.01
  C23                         0.01      0.01      5.68      0.01         0.01
  C4                          0.01      0.01      5.86      0.01         0.01
  C7                          0.01      0.01      5.57      0.01         0.01
  C5                          0.17      0.17      0.29      0.25         0.14
  C8                          0.01      0.22      0.01      0.24         0.01
  C15                         0.01      0.17      0.01      0.26         0.01
  

  Analysis begun on:  Fri Sep  3 16:50:51 2021
  Analysis ended on:  Fri Sep  3 16:50:52 2021
  Total elapsed time: 00:00:01