
  EPA STORM WATER MANAGEMENT MODEL - VERSION 5.1 (Build 5.3.0.dev0)
  --------------------------------------------------------------

  WARNING 09: time series interval greater than recording interval for Rain Gage RG1
  WARNING 09: time series interval greater than recording interval for Rain Gage RG2
  WARNING 09: time series interval greater than recording interval for Rain Gage RG3
  WARNING 09: time series interval greater than recording interval for Rain Gage RG4
  
  *********************************************************
  NOTE: The summary statistics displayed in this report are
  based on results found at every computational time step,  
  not just on results from each reporting time step.
  *********************************************************
  
  ****************
  Analysis Options
  ****************
  Flow Units ............... CMS
  Process Models:
    Rainfall/Runoff ........ YES
    RDII ................... NO
    Snowmelt ............... NO
    Groundwater ............ NO
    Flow Routing ........... YES
    Ponding Allowed ........ YES
    Water Quality .......... NO
  Infiltration Method ...... HORTON
  Flow Routing Method ...... DYNWAVE
  Surcharge Method ......... EXTRAN
  Starting Date ............ 08/28/2015 00:00:00
  Ending Date .............. 08/28/2015 23:40:00
  Antecedent Dry Days ...... 0.0
  Report Time Step ......... 00:01:00
  Wet Time Step ............ 00:01:00
  Dry Time Step ............ 00:01:00
  Routing Time Step ........ 5.00 sec
  Variable Time Step ....... YES
  Maximum Trials ........... 8
  Number of Threads ........ 1
  Head Tolerance ........... 0.001500 m
  
  
  **************************        Volume         Depth
  Runoff Quantity Continuity     hectare-m            mm
  **************************     ---------       -------
  Total Precipitation ......         3.246        18.014
  Evaporation Loss .........         0.000         0.000
  Infiltration Loss ........         0.000         0.000
  Surface Runoff ...........         3.224        17.894
  Final Storage ............         0.024         0.131
  Continuity Error (%) .....        -0.057
  
  
  **************************        Volume        Volume
  Flow Routing Continuity        hectare-m      10^6 ltr
  **************************     ---------     ---------
  Dry Weather Inflow .......         0.758         7.576
  Wet Weather Inflow .......         3.224        32.245
  Groundwater Inflow .......         0.000         0.000
  RDII Inflow ..............         0.000         0.000
  External Inflow ..........         0.000         0.000
  External Outflow .........         1.570        15.696
  Flooding Loss ............         1.447        14.466
  Evaporation Loss .........         0.000         0.000
  Exfiltration Loss ........         0.000         0.000
  Initial Stored Volume ....         0.000         0.000
  Final Stored Volume ......         0.763         7.635
  Continuity Error (%) .....         5.082
  
  
  *************************
  Highest Continuity Errors
  *************************
  Node T2 (16.21%)
  Node T3 (11.32%)
  Node T4 (9.61%)
  Node T5 (7.67%)
  Node T6 (6.60%)
  
  
  ***************************
  Time-Step Critical Elements
  ***************************
  None
  
  
  ********************************
  Highest Flow Instability Indexes
  ********************************
  Link C15 (2)
  Link C20 (1)
  
  
  *************************
  Routing Time Step Summary
  *************************
  Minimum Time Step           :     0.29 sec
  Average Time Step           :     5.00 sec
  Maximum Time Step           :     5.00 sec
  Percent in Steady State     :     0.00
  Average Iterations per Step :     2.05
  Percent Not Converging      :     0.06
  
  
  ***************************
  Subcatchment Runoff Summary
  ***************************
  
  ------------------------------------------------------------------------------------------------------------------------------
                            Total      Total      Total      Total     Imperv       Perv      Total       Total     Peak  Runoff
                           Precip      Runon       Evap      Infil     Runoff     Runoff     Runoff      Runoff   Runoff   Coeff
  Subcatchment                 mm         mm         mm         mm         mm         mm         mm    10^6 ltr      CMS
  ------------------------------------------------------------------------------------------------------------------------------
  SC01                      20.48       0.00       0.00       0.00      20.41       0.00      20.41        6.74     0.64   0.997
  SC02                      18.07       0.00       0.00       0.00      17.99       0.00      17.99        4.09     0.35   0.996
  SC03                      15.71       0.00       0.00       0.00      15.66       0.00      15.66        2.82     0.20   0.997
  SC04                      18.07       0.00       0.00       0.00      17.88       0.00      17.88        1.23     0.08   0.990
  SC05                      20.48       0.00       0.00       0.00      20.40       0.00      20.40        3.18     0.29   0.996
  SC06                      16.88       0.00       0.00       0.00      16.64       0.00      16.64        5.42     0.39   0.986
  SC07                      18.07       0.00       0.00       0.00      17.88       0.00      17.88        0.85     0.06   0.990
  SC08                      15.71       0.00       0.00       0.00      15.60       0.00      15.60        4.37     0.26   0.993
  SC09                      16.88       0.00       0.00       0.00      16.74       0.00      16.74        1.16     0.10   0.992
  SC010                     20.48       0.00       0.00       0.00      20.38       0.00      20.38        2.39     0.20   0.995
  
  
  ******************
  Node Depth Summary
  ******************
  
  ---------------------------------------------------------------------------------
                                 Average  Maximum  Maximum  Time of Max    Reported
                                   Depth    Depth      HGL   Occurrence   Max Depth
  Node                 Type       Meters   Meters   Meters  days hr:min      Meters
  ---------------------------------------------------------------------------------
  J1                   JUNCTION     0.07     0.18    34.18     0  13:36        0.18
  J3                   JUNCTION     0.09     0.11    18.11     0  18:47        0.11
  CSO7                 JUNCTION     0.09     0.68    34.68     0  13:36        0.58
  J5                   JUNCTION     0.06     0.13    32.13     0  13:42        0.13
  CSO9                 JUNCTION     0.10     2.00    42.00     0  18:36        1.24
  J8                   JUNCTION     0.10     0.22    36.22     0  18:42        0.22
  CSO8                 JUNCTION     0.12     0.34    32.34     0  13:36        0.33
  J10                  JUNCTION     0.09     0.20    29.20     0  13:42        0.20
  J13                  JUNCTION     0.06     0.16    29.16     0  13:37        0.16
  J15                  JUNCTION     0.15     0.31    15.31     0  13:39        0.31
  J16                  JUNCTION     0.07     0.19    30.19     0  13:36        0.19
  CSO10                JUNCTION     0.12     1.00    31.00     0  13:36        0.89
  J12                  JUNCTION     0.49     1.01    27.01     0  14:05        1.01
  J4                   JUNCTION     0.11     0.33    33.33     0  13:53        0.33
  J6                   JUNCTION     0.06     0.07    25.07     0  14:40        0.07
  J2                   JUNCTION     0.06     0.08    25.08     0  18:47        0.08
  J19                  JUNCTION     0.13     0.17     8.17     0  13:35        0.17
  J9                   JUNCTION     0.09     0.11    29.11     0  15:17        0.11
  J14                  JUNCTION     0.09     0.11    20.11     0  07:50        0.11
  J17                  JUNCTION     0.06     0.08    20.08     0  16:40        0.08
  J7                   JUNCTION     0.08     0.19    39.19     0  18:42        0.19
  J11                  JUNCTION     0.09     0.22    31.22     0  13:48        0.22
  J18                  JUNCTION     0.06     0.15    29.15     0  13:38        0.15
  Out_to_WWTP          OUTFALL      0.13     0.17     6.17     0  15:34        0.17
  T5                   STORAGE      2.91     5.00    32.00     0  13:38        5.00
  T4                   STORAGE      2.96     5.00    32.00     0  13:53        5.00
  T6                   STORAGE      3.25     5.00    36.00     0  13:34        5.00
  T3                   STORAGE      3.08     5.00    27.00     0  14:01        5.00
  T2                   STORAGE      2.89     5.00    26.00     0  13:54        5.00
  T1                   STORAGE      2.88     5.00    15.00     0  13:34        5.00
  
  
  *******************
  Node Inflow Summary
  *******************
  
  -------------------------------------------------------------------------------------------------
                                  Maximum  Maximum                  Lateral       Total        Flow
                                  Lateral    Total  Time of Max      Inflow      Inflow     Balance
                                   Inflow   Inflow   Occurrence      Volume      Volume       Error
  Node                 Type           CMS      CMS  days hr:min    10^6 ltr    10^6 ltr     Percent
  -------------------------------------------------------------------------------------------------
  J1                   JUNCTION     0.316    0.316     0  13:36        4.28        4.28      -0.023
  J3                   JUNCTION     0.000    0.127     0  14:41           0        7.76       0.348
  CSO7                 JUNCTION     0.069    0.069     0  13:36        1.41        1.41       0.010
  J5                   JUNCTION     0.088    0.146     0  13:36        1.48         2.9       0.006
  CSO9                 JUNCTION     0.110    0.110     0  18:36        1.54        1.54      -0.007
  J8                   JUNCTION     0.418    0.477     0  18:41        7.25        8.78       0.005
  CSO8                 JUNCTION     0.271    0.271     0  13:46        4.82        4.82      -0.001
  J10                  JUNCTION     0.219    0.444     0  13:41        3.57        8.38      -0.074
  J13                  JUNCTION     0.369    0.369     0  13:36           5           5      -0.082
  J15                  JUNCTION     0.000    0.933     0  13:37           0        20.1       0.319
  J16                  JUNCTION     0.660    0.660     0  13:36        7.81        7.81      -0.028
  CSO10                JUNCTION     0.210    0.210     0  13:36        2.66        2.66      -0.013
  J12                  JUNCTION     0.000    0.501     0  13:42           0          13       6.742
  J4                   JUNCTION     0.000    0.067     0  13:36           0        1.41       0.069
  J6                   JUNCTION     0.000    0.028     0  13:53           0        1.56       0.249
  J2                   JUNCTION     0.000    0.039     0  13:38           0         2.3       0.211
  J19                  JUNCTION     0.000    0.271     0  13:34           0        15.7       0.062
  J9                   JUNCTION     0.000    0.075     0  13:34           0        4.64       0.310
  J14                  JUNCTION     0.000    0.069     0  07:50           0        3.91       0.112
  J17                  JUNCTION     0.000    0.033     0  13:54           0         1.9       0.320
  J7                   JUNCTION     0.000    0.107     0  18:36           0        1.54       0.072
  J11                  JUNCTION     0.000    0.268     0  13:46           0        4.82       0.039
  J18                  JUNCTION     0.000    0.200     0  13:36           0        2.66       0.001
  Out_to_WWTP          OUTFALL      0.000    0.271     0  13:36           0        15.7       0.000
  T5                   STORAGE      0.000    0.293     0  13:36           0        4.28       8.312
  T4                   STORAGE      0.000    0.141     0  13:42           0         2.9      10.629
  T6                   STORAGE      0.000    0.464     0  18:42           0        8.78       7.061
  T3                   STORAGE      0.000    0.403     0  14:08           0        12.2      12.765
  T2                   STORAGE      0.000    0.342     0  13:37           0        5.01      19.350
  T1                   STORAGE      0.000    0.857     0  13:39           0          20       2.201
  
  
  **********************
  Node Surcharge Summary
  **********************
  
  Surcharging occurs when water rises above the top of the highest conduit.
  ---------------------------------------------------------------------
                                               Max. Height   Min. Depth
                                   Hours       Above Crown    Below Rim
  Node                 Type      Surcharged         Meters       Meters
  ---------------------------------------------------------------------
  CSO7                 JUNCTION        0.31          0.429        0.515
  CSO9                 JUNCTION        0.20          1.682        0.000
  CSO10                JUNCTION        0.09          0.560        0.000
  J4                   JUNCTION        0.11          0.030        1.670
  
  
  *********************
  Node Flooding Summary
  *********************
  
  Flooding refers to all water that overflows a node, whether it ponds or not.
  --------------------------------------------------------------------------
                                                             Total   Maximum
                                 Maximum   Time of Max       Flood    Ponded
                        Hours       Rate    Occurrence      Volume     Depth
  Node                 Flooded       CMS   days hr:min    10^6 ltr    Meters
  --------------------------------------------------------------------------
  CSO9                    0.01     0.018      0  18:36       0.000     0.000
  CSO10                   0.01     0.031      0  13:36       0.000     0.000
  T5                      5.38     0.236      0  13:38       1.322     0.000
  T4                      6.07     0.107      0  13:53       0.681     0.000
  T6                      6.75     0.389      0  18:42       3.164     0.000
  T3                      9.64     0.343      0  14:08       4.300     0.000
  T2                      5.80     0.208      0  13:54       1.444     0.000
  T1                      5.10     0.586      0  13:39       3.554     0.000
  
  
  **********************
  Storage Volume Summary
  **********************
  
  --------------------------------------------------------------------------------------------------
                         Average     Avg  Evap Exfil       Maximum     Max    Time of Max    Maximum
                          Volume    Pcnt  Pcnt  Pcnt        Volume    Pcnt     Occurrence    Outflow
  Storage Unit           1000 m3    Full  Loss  Loss       1000 m3    Full    days hr:min        CMS
  --------------------------------------------------------------------------------------------------
  T5                       0.291      58     0     0         0.500     100       0  13:38      0.039
  T4                       0.296      59     0     0         0.500     100       0  13:53      0.028
  T6                       0.390      65     0     0         0.600     100       0  13:34      0.075
  T3                       1.603      62     0     0         2.600     100       0  14:01      0.069
  T2                       0.577      58     0     0         1.000     100       0  13:54      0.033
  T1                       0.404      58     0     0         0.700     100       0  13:34      0.271
  
  
  ***********************
  Outfall Loading Summary
  ***********************
  
  -----------------------------------------------------------
                         Flow       Avg       Max       Total
                         Freq      Flow      Flow      Volume
  Outfall Node           Pcnt       CMS       CMS    10^6 ltr
  -----------------------------------------------------------
  Out_to_WWTP           99.43     0.185     0.271      15.696
  -----------------------------------------------------------
  System                99.43     0.185     0.271      15.696
  
  
  ********************
  Link Flow Summary
  ********************
  
  -----------------------------------------------------------------------------
                                 Maximum  Time of Max   Maximum    Max/    Max/
                                  |Flow|   Occurrence   |Veloc|    Full    Full
  Link                 Type          CMS  days hr:min     m/sec    Flow   Depth
  -----------------------------------------------------------------------------
  C1                   CONDUIT     0.039     0  14:25      1.03    0.01    0.10
  C6                   CONDUIT     0.060     0  13:46      1.29    0.96    0.71
  C2                   CONDUIT     0.028     0  14:40      1.00    0.03    0.16
  C9                   CONDUIT     0.089     0  18:42      1.17    0.30    0.41
  C16                  CONDUIT     0.249     0  13:48      1.44    0.02    0.10
  C3                   CONDUIT     0.069     0  07:50      1.51    0.03    0.11
  C19                  CONDUIT     0.033     0  14:50      0.71    0.01    0.19
  C11                  CONDUIT     0.127     0  15:11      1.48    0.01    0.11
  C20                  CONDUIT     0.607     0  13:36      2.72    0.02    0.12
  C22                  CONDUIT     0.181     0  13:38      1.50    0.08    0.29
  C12                  CONDUIT     0.075     0  15:17      1.06    0.01    0.28
  C17                  CONDUIT     0.426     0  13:42      2.07    0.02    0.29
  C10                  CONDUIT     0.464     0  18:42      0.94    0.05    0.57
  C13                  CONDUIT     0.403     0  14:08      1.32    0.02    0.75
  C18                  CONDUIT     0.342     0  13:37      1.01    0.01    0.54
  C23                  CONDUIT     0.857     0  13:39      1.10    0.09    0.60
  C4                   CONDUIT     0.293     0  13:36      1.13    0.07    0.59
  C7                   CONDUIT     0.141     0  13:42      0.82    0.03    0.56
  C14                  CONDUIT     0.271     0  13:36      2.08    0.02    0.09
  C5                   CONDUIT     0.067     0  13:36      1.32    1.15    1.00
  C8                   CONDUIT     0.107     0  18:36      1.70    1.35    0.80
  C15                  CONDUIT     0.268     0  13:46      2.65    0.85    0.61
  C21                  CONDUIT     0.200     0  13:36      1.85    1.14    0.68
  V4                   ORIFICE     0.028     0  13:53                      0.35
  V5                   ORIFICE     0.039     0  13:38                      1.00
  V1                   ORIFICE     0.271     0  13:34                      1.00
  V6                   ORIFICE     0.075     0  13:34                      0.43
  V3                   ORIFICE     0.069     0  07:50                      0.65
  V2                   ORIFICE     0.033     0  13:54                      0.24
  
  
  ***************************
  Flow Classification Summary
  ***************************
  
  -------------------------------------------------------------------------------------
                      Adjusted    ---------- Fraction of Time in Flow Class ---------- 
                       /Actual         Up    Down  Sub   Sup   Up    Down  Norm  Inlet 
  Conduit               Length    Dry  Dry   Dry   Crit  Crit  Crit  Crit  Ltd   Ctrl  
  -------------------------------------------------------------------------------------
  C1                      1.00   0.00  0.00  0.00  0.02  0.98  0.00  0.00  0.96  0.00
  C6                      1.00   0.00  0.00  0.00  0.02  0.98  0.00  0.00  0.00  0.00
  C2                      1.00   0.00  0.00  0.00  0.29  0.71  0.00  0.00  0.98  0.00
  C9                      1.00   0.00  0.00  0.00  1.00  0.00  0.00  0.00  1.00  0.00
  C16                     1.00   0.00  0.11  0.00  0.27  0.62  0.00  0.00  0.25  0.00
  C3                      1.00   0.00  0.00  0.00  0.03  0.96  0.00  0.00  0.76  0.00
  C19                     1.00   0.00  0.00  0.00  1.00  0.00  0.00  0.00  1.00  0.00
  C11                     1.00   0.00  0.00  0.00  0.33  0.67  0.00  0.00  1.00  0.00
  C20                     1.00   0.00  0.00  0.00  0.43  0.57  0.00  0.00  0.99  0.00
  C22                     1.00   0.00  0.00  0.00  0.91  0.09  0.00  0.00  1.00  0.00
  C12                     1.00   0.00  0.00  0.00  0.83  0.16  0.00  0.00  1.00  0.00
  C17                     1.00   0.00  0.00  0.00  0.63  0.37  0.00  0.00  0.99  0.00
  C10                     1.00   0.00  0.00  0.00  0.85  0.15  0.00  0.00  0.98  0.00
  C13                     1.00   0.00  0.00  0.00  0.84  0.16  0.00  0.00  0.42  0.00
  C18                     1.00   0.00  0.00  0.00  0.93  0.07  0.00  0.00  0.98  0.00
  C23                     1.00   0.00  0.00  0.00  0.88  0.12  0.00  0.00  0.96  0.00
  C4                      1.00   0.00  0.00  0.00  0.89  0.11  0.00  0.00  0.98  0.00
  C7                      1.00   0.00  0.00  0.00  0.95  0.05  0.00  0.00  0.97  0.00
  C14                     1.00   0.00  0.00  0.00  0.00  1.00  0.00  0.00  0.37  0.00
  C5                      1.00   0.00  0.00  0.00  0.88  0.12  0.00  0.00  0.97  0.00
  C8                      1.00   0.00  0.00  0.00  0.19  0.81  0.00  0.00  0.00  0.00
  C15                     1.00   0.11  0.00  0.00  0.00  0.89  0.00  0.00  0.00  0.00
  C21                     1.00   0.00  0.00  0.00  0.00  1.00  0.00  0.00  0.00  0.00
  
  
  *************************
  Conduit Surcharge Summary
  *************************
  
  ----------------------------------------------------------------------------
                                                           Hours        Hours 
                         --------- Hours Full --------   Above Full   Capacity
  Conduit                Both Ends  Upstream  Dnstream   Normal Flow   Limited
  ----------------------------------------------------------------------------
  C6                          0.01      0.11      0.01      0.01         0.01
  C10                         0.01      0.01     16.41      0.01         0.01
  C13                         0.01      0.01     15.43      0.01         0.01
  C18                         0.01      0.01     15.52      0.01         0.01
  C23                         0.01      0.01     16.39      0.01         0.01
  C4                          0.01      0.01     16.68      0.01         0.01
  C7                          0.01      0.01     16.73      0.01         0.01
  C5                          0.30      0.31      0.41      0.36         0.25
  C8                          0.01      0.20      0.01      0.18         0.01
  C21                         0.01      0.09      0.01      0.07         0.01
  

  Analysis begun on:  Mon Sep 20 15:08:11 2021
  Analysis ended on:  Mon Sep 20 15:08:12 2021
  Total elapsed time: 00:00:01