
  EPA STORM WATER MANAGEMENT MODEL - VERSION 5.1 (Build 5.3.0.dev0)
  --------------------------------------------------------------

  WARNING 09: time series interval greater than recording interval for Rain Gage RG1
  WARNING 09: time series interval greater than recording interval for Rain Gage RG2
  WARNING 09: time series interval greater than recording interval for Rain Gage RG3
  WARNING 09: time series interval greater than recording interval for Rain Gage RG4
  
  *********************************************************
  NOTE: The summary statistics displayed in this report are
  based on results found at every computational time step,  
  not just on results from each reporting time step.
  *********************************************************
  
  ****************
  Analysis Options
  ****************
  Flow Units ............... CMS
  Process Models:
    Rainfall/Runoff ........ YES
    RDII ................... NO
    Snowmelt ............... NO
    Groundwater ............ NO
    Flow Routing ........... YES
    Ponding Allowed ........ YES
    Water Quality .......... NO
  Infiltration Method ...... HORTON
  Flow Routing Method ...... DYNWAVE
  Surcharge Method ......... EXTRAN
  Starting Date ............ 08/28/2015 00:00:00
  Ending Date .............. 08/28/2015 23:40:00
  Antecedent Dry Days ...... 0.0
  Report Time Step ......... 00:01:00
  Wet Time Step ............ 00:01:00
  Dry Time Step ............ 00:01:00
  Routing Time Step ........ 5.00 sec
  Variable Time Step ....... YES
  Maximum Trials ........... 8
  Number of Threads ........ 1
  Head Tolerance ........... 0.001500 m
  
  
  **************************        Volume         Depth
  Runoff Quantity Continuity     hectare-m            mm
  **************************     ---------       -------
  Total Precipitation ......         2.457        13.633
  Evaporation Loss .........         0.000         0.000
  Infiltration Loss ........         0.000         0.000
  Surface Runoff ...........         2.438        13.530
  Final Storage ............         0.019         0.107
  Continuity Error (%) .....        -0.028
  
  
  **************************        Volume        Volume
  Flow Routing Continuity        hectare-m      10^6 ltr
  **************************     ---------     ---------
  Dry Weather Inflow .......         0.758         7.576
  Wet Weather Inflow .......         2.438        24.381
  Groundwater Inflow .......         0.000         0.000
  RDII Inflow ..............         0.000         0.000
  External Inflow ..........         0.000         0.000
  External Outflow .........         1.733        17.329
  Flooding Loss ............         0.614         6.141
  Evaporation Loss .........         0.000         0.000
  Exfiltration Loss ........         0.000         0.000
  Initial Stored Volume ....         0.000         0.000
  Final Stored Volume ......         0.703         7.027
  Continuity Error (%) .....         4.566
  
  
  *************************
  Highest Continuity Errors
  *************************
  Node T2 (19.09%)
  Node T3 (10.62%)
  Node T4 (8.54%)
  Node T5 (8.54%)
  Node T6 (5.99%)
  
  
  ***************************
  Time-Step Critical Elements
  ***************************
  None
  
  
  ********************************
  Highest Flow Instability Indexes
  ********************************
  Link C15 (2)
  
  
  *************************
  Routing Time Step Summary
  *************************
  Minimum Time Step           :     4.50 sec
  Average Time Step           :     5.00 sec
  Maximum Time Step           :     5.00 sec
  Percent in Steady State     :     0.00
  Average Iterations per Step :     2.00
  Percent Not Converging      :     0.00
  
  
  ***************************
  Subcatchment Runoff Summary
  ***************************
  
  ------------------------------------------------------------------------------------------------------------------------------
                            Total      Total      Total      Total     Imperv       Perv      Total       Total     Peak  Runoff
                           Precip      Runon       Evap      Infil     Runoff     Runoff     Runoff      Runoff   Runoff   Coeff
  Subcatchment                 mm         mm         mm         mm         mm         mm         mm    10^6 ltr      CMS
  ------------------------------------------------------------------------------------------------------------------------------
  SC01                      13.39       0.00       0.00       0.00      13.31       0.00      13.31        4.39     0.16   0.994
  SC02                      10.58       0.00       0.00       0.00      10.50       0.00      10.50        2.39     0.09   0.993
  SC03                      15.81       0.00       0.00       0.00      15.75       0.00      15.75        2.84     0.11   0.996
  SC04                      10.58       0.00       0.00       0.00      10.44       0.00      10.44        0.72     0.02   0.987
  SC05                      13.39       0.00       0.00       0.00      13.31       0.00      13.31        2.08     0.07   0.994
  SC06                      14.13       0.00       0.00       0.00      13.95       0.00      13.95        4.54     0.13   0.987
  SC07                      10.58       0.00       0.00       0.00      10.44       0.00      10.44        0.50     0.02   0.987
  SC08                      15.81       0.00       0.00       0.00      15.71       0.00      15.71        4.40     0.15   0.994
  SC09                      14.13       0.00       0.00       0.00      14.02       0.00      14.02        0.97     0.03   0.992
  SC010                     13.39       0.00       0.00       0.00      13.29       0.00      13.29        1.56     0.05   0.993
  
  
  ******************
  Node Depth Summary
  ******************
  
  ---------------------------------------------------------------------------------
                                 Average  Maximum  Maximum  Time of Max    Reported
                                   Depth    Depth      HGL   Occurrence   Max Depth
  Node                 Type       Meters   Meters   Meters  days hr:min      Meters
  ---------------------------------------------------------------------------------
  J1                   JUNCTION     0.06     0.09    34.09     0  03:42        0.09
  J3                   JUNCTION     0.10     0.11    18.11     0  15:46        0.11
  CSO7                 JUNCTION     0.08     0.11    34.11     0  09:16        0.11
  J5                   JUNCTION     0.05     0.07    32.07     0  09:17        0.07
  CSO9                 JUNCTION     0.10     0.15    40.15     0  09:16        0.15
  J8                   JUNCTION     0.10     0.14    36.14     0  09:17        0.14
  CSO8                 JUNCTION     0.13     0.22    32.22     0  04:46        0.22
  J10                  JUNCTION     0.09     0.15    29.15     0  04:48        0.15
  J13                  JUNCTION     0.05     0.08    29.08     0  04:02        0.08
  J15                  JUNCTION     0.15     0.19    15.19     0  03:49        0.19
  J16                  JUNCTION     0.06     0.10    30.10     0  03:42        0.10
  CSO10                JUNCTION     0.11     0.18    30.18     0  03:41        0.18
  J12                  JUNCTION     0.68     1.01    27.01     0  10:14        1.01
  J4                   JUNCTION     0.09     0.13    33.13     0  09:18        0.13
  J6                   JUNCTION     0.06     0.07    25.07     0  15:44        0.07
  J2                   JUNCTION     0.07     0.08    25.08     0  15:22        0.08
  J19                  JUNCTION     0.15     0.17     8.17     0  15:36        0.17
  J9                   JUNCTION     0.10     0.11    29.11     0  09:36        0.11
  J14                  JUNCTION     0.10     0.12    20.12     0  03:50        0.12
  J17                  JUNCTION     0.06     0.07    20.07     0  15:59        0.07
  J7                   JUNCTION     0.08     0.11    39.11     0  09:18        0.11
  J11                  JUNCTION     0.10     0.16    31.16     0  04:48        0.16
  J18                  JUNCTION     0.05     0.08    29.08     0  03:43        0.08
  Out_to_WWTP          OUTFALL      0.15     0.17     6.17     0  15:36        0.17
  T5                   STORAGE      3.32     5.00    32.00     0  14:40        5.00
  T4                   STORAGE      2.66     4.06    31.06     0  15:42        4.06
  T6                   STORAGE      3.84     5.00    36.00     0  08:06        5.00
  T3                   STORAGE      3.94     5.00    27.00     0  09:55        5.00
  T2                   STORAGE      2.92     4.31    25.31     0  15:57        4.31
  T1                   STORAGE      3.11     4.67    14.67     0  15:36        4.67
  
  
  *******************
  Node Inflow Summary
  *******************
  
  -------------------------------------------------------------------------------------------------
                                  Maximum  Maximum                  Lateral       Total        Flow
                                  Lateral    Total  Time of Max      Inflow      Inflow     Balance
                                   Inflow   Inflow   Occurrence      Volume      Volume       Error
  Node                 Type           CMS      CMS  days hr:min    10^6 ltr    10^6 ltr     Percent
  -------------------------------------------------------------------------------------------------
  J1                   JUNCTION     0.079    0.079     0  03:41        3.17        3.17      -0.040
  J3                   JUNCTION     0.000    0.125     0  15:44           0        8.68       0.297
  CSO7                 JUNCTION     0.023    0.023     0  09:11        1.06        1.06       0.011
  J5                   JUNCTION     0.025    0.046     0  09:16       0.969        2.03      -0.015
  CSO9                 JUNCTION     0.034    0.034     0  09:16        1.35        1.35       0.008
  J8                   JUNCTION     0.149    0.179     0  09:16        6.37        7.72      -0.018
  CSO8                 JUNCTION     0.145    0.145     0  04:46        4.85        4.85      -0.001
  J10                  JUNCTION     0.111    0.236     0  04:46        3.59        8.43      -0.059
  J13                  JUNCTION     0.091    0.091     0  04:01         3.3         3.3      -0.134
  J15                  JUNCTION     0.000    0.315     0  03:47           0          18       0.325
  J16                  JUNCTION     0.165    0.165     0  03:36        5.47        5.47      -0.027
  CSO10                JUNCTION     0.055    0.055     0  03:41        1.83        1.83       0.006
  J12                  JUNCTION     0.000    0.284     0  04:48           0        13.8       6.284
  J4                   JUNCTION     0.000    0.023     0  09:16           0        1.06       0.112
  J6                   JUNCTION     0.000    0.025     0  15:42           0        1.63       0.200
  J2                   JUNCTION     0.000    0.039     0  14:41           0        2.59       0.172
  J19                  JUNCTION     0.000    0.261     0  15:36           0        17.3       0.050
  J9                   JUNCTION     0.000    0.075     0  08:06           0        5.39       0.241
  J14                  JUNCTION     0.000    0.071     0  03:50           0        4.47       0.095
  J17                  JUNCTION     0.000    0.031     0  15:57           0        2.03       0.276
  J7                   JUNCTION     0.000    0.033     0  09:17           0        1.35       0.080
  J11                  JUNCTION     0.000    0.143     0  04:46           0        4.85       0.023
  J18                  JUNCTION     0.000    0.053     0  03:42           0        1.83      -0.009
  Out_to_WWTP          OUTFALL      0.000    0.261     0  15:36           0        17.3       0.000
  T5                   STORAGE      0.000    0.074     0  03:42           0        3.17       9.334
  T4                   STORAGE      0.000    0.045     0  09:17           0        2.03       9.340
  T6                   STORAGE      0.000    0.174     0  09:18           0        7.72       6.367
  T3                   STORAGE      0.000    0.297     0  11:22           0          13      11.887
  T2                   STORAGE      0.000    0.085     0  04:02           0         3.3      23.591
  T1                   STORAGE      0.000    0.305     0  03:49           0        17.9       1.873
  
  
  **********************
  Node Surcharge Summary
  **********************
  
  No nodes were surcharged.
  
  
  *********************
  Node Flooding Summary
  *********************
  
  Flooding refers to all water that overflows a node, whether it ponds or not.
  --------------------------------------------------------------------------
                                                             Total   Maximum
                                 Maximum   Time of Max       Flood    Ponded
                        Hours       Rate    Occurrence      Volume     Depth
  Node                 Flooded       CMS   days hr:min    10^6 ltr    Meters
  --------------------------------------------------------------------------
  T5                      1.04     0.019      0  15:02       0.044     0.000
  T6                      9.59     0.099      0  09:18       1.551     0.000
  T3                     13.32     0.237      0  11:22       4.546     0.000
  
  
  **********************
  Storage Volume Summary
  **********************
  
  --------------------------------------------------------------------------------------------------
                         Average     Avg  Evap Exfil       Maximum     Max    Time of Max    Maximum
                          Volume    Pcnt  Pcnt  Pcnt        Volume    Pcnt     Occurrence    Outflow
  Storage Unit           1000 m3    Full  Loss  Loss       1000 m3    Full    days hr:min        CMS
  --------------------------------------------------------------------------------------------------
  T5                       0.332      66     0     0         0.500     100       0  14:40      0.039
  T4                       0.266      53     0     0         0.406      81       0  15:42      0.025
  T6                       0.461      77     0     0         0.600     100       0  08:06      0.075
  T3                       2.047      79     0     0         2.600     100       0  09:55      0.071
  T2                       0.584      58     0     0         0.862      86       0  15:57      0.031
  T1                       0.435      62     0     0         0.654      93       0  15:36      0.261
  
  
  ***********************
  Outfall Loading Summary
  ***********************
  
  -----------------------------------------------------------
                         Flow       Avg       Max       Total
                         Freq      Flow      Flow      Volume
  Outfall Node           Pcnt       CMS       CMS    10^6 ltr
  -----------------------------------------------------------
  Out_to_WWTP           99.45     0.205     0.261      17.329
  -----------------------------------------------------------
  System                99.45     0.205     0.261      17.329
  
  
  ********************
  Link Flow Summary
  ********************
  
  -----------------------------------------------------------------------------
                                 Maximum  Time of Max   Maximum    Max/    Max/
                                  |Flow|   Occurrence   |Veloc|    Full    Full
  Link                 Type          CMS  days hr:min     m/sec    Flow   Depth
  -----------------------------------------------------------------------------
  C1                   CONDUIT     0.039     0  15:22      1.03    0.01    0.10
  C6                   CONDUIT     0.022     0  09:18      1.03    0.35    0.35
  C2                   CONDUIT     0.025     0  15:44      0.94    0.03    0.15
  C9                   CONDUIT     0.032     0  09:19      0.82    0.11    0.25
  C16                  CONDUIT     0.132     0  04:48      1.19    0.01    0.08
  C3                   CONDUIT     0.071     0  03:50      1.56    0.03    0.11
  C19                  CONDUIT     0.031     0  15:59      0.67    0.01    0.13
  C11                  CONDUIT     0.125     0  15:46      1.47    0.01    0.07
  C20                  CONDUIT     0.155     0  03:42      1.61    0.00    0.07
  C22                  CONDUIT     0.051     0  03:43      0.94    0.02    0.17
  C12                  CONDUIT     0.075     0  09:37      1.00    0.01    0.28
  C17                  CONDUIT     0.226     0  04:48      1.87    0.01    0.28
  C10                  CONDUIT     0.174     0  09:18      1.13    0.02    0.55
  C13                  CONDUIT     0.297     0  11:22      1.77    0.02    0.75
  C18                  CONDUIT     0.085     0  04:02      1.39    0.00    0.52
  C23                  CONDUIT     0.305     0  03:49      1.21    0.03    0.56
  C4                   CONDUIT     0.074     0  03:42      1.23    0.02    0.55
  C7                   CONDUIT     0.045     0  09:17      1.07    0.01    0.54
  C14                  CONDUIT     0.261     0  15:36      2.06    0.01    0.08
  C5                   CONDUIT     0.023     0  09:16      0.95    0.39    0.48
  C8                   CONDUIT     0.033     0  09:17      1.08    0.41    0.41
  C15                  CONDUIT     0.143     0  04:46      2.23    0.46    0.42
  C21                  CONDUIT     0.053     0  03:42      1.37    0.31    0.30
  V4                   ORIFICE     0.025     0  15:42                      0.35
  V5                   ORIFICE     0.039     0  14:41                      1.00
  V1                   ORIFICE     0.261     0  15:36                      1.00
  V6                   ORIFICE     0.075     0  08:06                      0.43
  V3                   ORIFICE     0.071     0  03:50                      0.65
  V2                   ORIFICE     0.031     0  15:57                      0.24
  
  
  ***************************
  Flow Classification Summary
  ***************************
  
  -------------------------------------------------------------------------------------
                      Adjusted    ---------- Fraction of Time in Flow Class ---------- 
                       /Actual         Up    Down  Sub   Sup   Up    Down  Norm  Inlet 
  Conduit               Length    Dry  Dry   Dry   Crit  Crit  Crit  Crit  Ltd   Ctrl  
  -------------------------------------------------------------------------------------
  C1                      1.00   0.00  0.00  0.00  0.06  0.94  0.00  0.00  0.97  0.00
  C6                      1.00   0.00  0.00  0.00  0.01  0.99  0.00  0.00  0.00  0.00
  C2                      1.00   0.00  0.00  0.00  0.13  0.87  0.00  0.00  0.99  0.00
  C9                      1.00   0.00  0.00  0.00  1.00  0.00  0.00  0.00  1.00  0.00
  C16                     1.00   0.00  0.00  0.00  0.26  0.74  0.00  0.00  0.26  0.00
  C3                      1.00   0.00  0.00  0.00  0.02  0.98  0.00  0.00  0.88  0.00
  C19                     1.00   0.00  0.00  0.00  1.00  0.00  0.00  0.00  1.00  0.00
  C11                     1.00   0.00  0.00  0.00  0.17  0.83  0.00  0.00  1.00  0.00
  C20                     1.00   0.00  0.00  0.00  0.40  0.60  0.00  0.00  0.99  0.00
  C22                     1.00   0.00  0.00  0.00  0.99  0.01  0.00  0.00  1.00  0.00
  C12                     1.00   0.00  0.00  0.00  0.96  0.04  0.00  0.00  1.00  0.00
  C17                     1.00   0.00  0.00  0.00  0.68  0.32  0.00  0.00  0.98  0.00
  C10                     1.00   0.00  0.00  0.00  0.97  0.03  0.00  0.00  0.98  0.00
  C13                     1.00   0.00  0.00  0.00  0.96  0.04  0.00  0.00  0.28  0.00
  C18                     1.00   0.00  0.00  0.00  0.97  0.03  0.00  0.00  0.98  0.00
  C23                     1.00   0.00  0.00  0.00  0.96  0.04  0.00  0.00  0.97  0.00
  C4                      1.00   0.00  0.00  0.00  0.97  0.03  0.00  0.00  0.98  0.00
  C7                      1.00   0.00  0.00  0.00  0.97  0.03  0.00  0.00  0.98  0.00
  C14                     1.00   0.00  0.00  0.00  0.00  1.00  0.00  0.00  0.36  0.00
  C5                      1.00   0.00  0.00  0.00  0.87  0.13  0.00  0.00  0.99  0.00
  C8                      1.00   0.00  0.00  0.00  0.08  0.92  0.00  0.00  0.00  0.00
  C15                     1.00   0.00  0.00  0.00  0.00  1.00  0.00  0.00  0.00  0.00
  C21                     1.00   0.00  0.00  0.00  0.00  1.00  0.00  0.00  0.00  0.00
  
  
  *************************
  Conduit Surcharge Summary
  *************************
  
  ----------------------------------------------------------------------------
                                                           Hours        Hours 
                         --------- Hours Full --------   Above Full   Capacity
  Conduit                Both Ends  Upstream  Dnstream   Normal Flow   Limited
  ----------------------------------------------------------------------------
  C10                         0.01      0.01     20.20      0.01         0.01
  C13                         0.01      0.01     19.44      0.01         0.01
  C18                         0.01      0.01     17.23      0.01         0.01
  C23                         0.01      0.01     20.40      0.01         0.01
  C4                          0.01      0.01     20.51      0.01         0.01
  C7                          0.01      0.01     19.75      0.01         0.01
  

  Analysis begun on:  Mon Sep 20 15:26:48 2021
  Analysis ended on:  Mon Sep 20 15:26:48 2021
  Total elapsed time: < 1 sec