
  EPA STORM WATER MANAGEMENT MODEL - VERSION 5.1 (Build 5.3.0.dev0)
  --------------------------------------------------------------

  WARNING 09: time series interval greater than recording interval for Rain Gage RG1
  WARNING 09: time series interval greater than recording interval for Rain Gage RG2
  WARNING 09: time series interval greater than recording interval for Rain Gage RG3
  WARNING 09: time series interval greater than recording interval for Rain Gage RG4
  
  *********************************************************
  NOTE: The summary statistics displayed in this report are
  based on results found at every computational time step,  
  not just on results from each reporting time step.
  *********************************************************
  
  ****************
  Analysis Options
  ****************
  Flow Units ............... CMS
  Process Models:
    Rainfall/Runoff ........ YES
    RDII ................... NO
    Snowmelt ............... NO
    Groundwater ............ NO
    Flow Routing ........... YES
    Ponding Allowed ........ YES
    Water Quality .......... NO
  Infiltration Method ...... HORTON
  Flow Routing Method ...... DYNWAVE
  Surcharge Method ......... EXTRAN
  Starting Date ............ 08/28/2015 00:00:00
  Ending Date .............. 08/28/2015 23:40:00
  Antecedent Dry Days ...... 0.0
  Report Time Step ......... 00:01:00
  Wet Time Step ............ 00:01:00
  Dry Time Step ............ 00:01:00
  Routing Time Step ........ 5.00 sec
  Variable Time Step ....... YES
  Maximum Trials ........... 8
  Number of Threads ........ 1
  Head Tolerance ........... 0.001500 m
  
  
  **************************        Volume         Depth
  Runoff Quantity Continuity     hectare-m            mm
  **************************     ---------       -------
  Total Precipitation ......         2.139        11.870
  Evaporation Loss .........         0.000         0.000
  Infiltration Loss ........         0.000         0.000
  Surface Runoff ...........         2.122        11.774
  Final Storage ............         0.019         0.107
  Continuity Error (%) .....        -0.092
  
  
  **************************        Volume        Volume
  Flow Routing Continuity        hectare-m      10^6 ltr
  **************************     ---------     ---------
  Dry Weather Inflow .......         0.758         7.576
  Wet Weather Inflow .......         2.122        21.218
  Groundwater Inflow .......         0.000         0.000
  RDII Inflow ..............         0.000         0.000
  External Inflow ..........         0.000         0.000
  External Outflow .........         1.301        13.011
  Flooding Loss ............         0.751         7.514
  Evaporation Loss .........         0.000         0.000
  Exfiltration Loss ........         0.000         0.000
  Initial Stored Volume ....         0.000         0.000
  Final Stored Volume ......         0.694         6.942
  Continuity Error (%) .....         4.609
  
  
  *************************
  Highest Continuity Errors
  *************************
  Node T2 (19.60%)
  Node T3 (13.52%)
  Node T4 (9.35%)
  Node T5 (7.40%)
  Node J12 (7.28%)
  
  
  ***************************
  Time-Step Critical Elements
  ***************************
  None
  
  
  ********************************
  Highest Flow Instability Indexes
  ********************************
  All links are stable.
  
  
  *************************
  Routing Time Step Summary
  *************************
  Minimum Time Step           :     1.46 sec
  Average Time Step           :     5.00 sec
  Maximum Time Step           :     5.00 sec
  Percent in Steady State     :     0.00
  Average Iterations per Step :     2.12
  Percent Not Converging      :     0.72
  
  
  ***************************
  Subcatchment Runoff Summary
  ***************************
  
  ------------------------------------------------------------------------------------------------------------------------------
                            Total      Total      Total      Total     Imperv       Perv      Total       Total     Peak  Runoff
                           Precip      Runon       Evap      Infil     Runoff     Runoff     Runoff      Runoff   Runoff   Coeff
  Subcatchment                 mm         mm         mm         mm         mm         mm         mm    10^6 ltr      CMS
  ------------------------------------------------------------------------------------------------------------------------------
  SC01                      11.31       0.00       0.00       0.00      11.26       0.00      11.26        3.71     0.90   0.995
  SC02                      11.57       0.00       0.00       0.00      11.50       0.00      11.50        2.62     0.49   0.994
  SC03                      12.88       0.00       0.00       0.00      12.84       0.00      12.84        2.31     0.73   0.997
  SC04                      11.57       0.00       0.00       0.00      11.45       0.00      11.45        0.79     0.10   0.989
  SC05                      11.31       0.00       0.00       0.00      11.25       0.00      11.25        1.76     0.40   0.995
  SC06                      11.81       0.00       0.00       0.00      11.61       0.00      11.61        3.78     0.54   0.983
  SC07                      11.57       0.00       0.00       0.00      11.45       0.00      11.45        0.54     0.07   0.989
  SC08                      12.88       0.00       0.00       0.00      12.79       0.00      12.79        3.58     0.65   0.993
  SC09                      11.81       0.00       0.00       0.00      11.67       0.00      11.67        0.81     0.15   0.988
  SC010                     11.31       0.00       0.00       0.00      11.24       0.00      11.24        1.32     0.26   0.994
  
  
  ******************
  Node Depth Summary
  ******************
  
  ---------------------------------------------------------------------------------
                                 Average  Maximum  Maximum  Time of Max    Reported
                                   Depth    Depth      HGL   Occurrence   Max Depth
  Node                 Type       Meters   Meters   Meters  days hr:min      Meters
  ---------------------------------------------------------------------------------
  J1                   JUNCTION     0.05     0.21    34.21     0  10:37        0.21
  J3                   JUNCTION     0.09     0.11    18.11     0  13:07        0.11
  CSO7                 JUNCTION     0.08     1.20    35.20     0  10:42        1.20
  J5                   JUNCTION     0.05     0.14    32.14     0  10:47        0.14
  CSO9                 JUNCTION     0.10     2.00    42.00     0  10:35        2.00
  J8                   JUNCTION     0.08     0.26    36.26     0  10:42        0.26
  CSO8                 JUNCTION     0.11     2.00    34.00     0  08:25        2.00
  J10                  JUNCTION     0.07     0.30    29.30     0  08:28        0.30
  J13                  JUNCTION     0.05     0.18    29.18     0  10:37        0.18
  J15                  JUNCTION     0.13     0.34    15.34     0  10:43        0.34
  J16                  JUNCTION     0.05     0.22    30.22     0  10:37        0.22
  CSO10                JUNCTION     0.09     1.00    31.00     0  10:36        1.00
  J12                  JUNCTION     0.56     1.01    27.01     0  11:49        1.01
  J4                   JUNCTION     0.10     1.23    34.23     0  10:42        0.77
  J6                   JUNCTION     0.05     0.07    25.07     0  12:18        0.07
  J2                   JUNCTION     0.06     0.08    25.08     0  11:54        0.08
  J19                  JUNCTION     0.12     0.17     8.17     0  10:47        0.17
  J9                   JUNCTION     0.08     0.11    29.11     0  12:29        0.11
  J14                  JUNCTION     0.08     0.13    20.13     0  10:00        0.13
  J17                  JUNCTION     0.05     0.08    20.08     0  13:08        0.08
  J7                   JUNCTION     0.06     0.23    39.23     0  10:47        0.23
  J11                  JUNCTION     0.06     0.29    31.29     0  08:38        0.29
  J18                  JUNCTION     0.04     0.16    29.16     0  10:44        0.16
  Out_to_WWTP          OUTFALL      0.12     0.17     6.17     0  13:32        0.17
  T5                   STORAGE      2.47     5.00    32.00     0  11:08        5.00
  T4                   STORAGE      2.63     5.00    32.00     0  11:31        5.00
  T6                   STORAGE      2.54     5.00    36.00     0  10:46        5.00
  T3                   STORAGE      2.96     5.00    27.00     0  11:50        5.00
  T2                   STORAGE      2.67     5.00    26.00     0  12:15        5.00
  T1                   STORAGE      2.29     5.00    15.00     0  10:45        5.00
  
  
  *******************
  Node Inflow Summary
  *******************
  
  -------------------------------------------------------------------------------------------------
                                  Maximum  Maximum                  Lateral       Total        Flow
                                  Lateral    Total  Time of Max      Inflow      Inflow     Balance
                                   Inflow   Inflow   Occurrence      Volume      Volume       Error
  Node                 Type           CMS      CMS  days hr:min    10^6 ltr    10^6 ltr     Percent
  -------------------------------------------------------------------------------------------------
  J1                   JUNCTION     0.422    0.422     0  10:36        2.85        2.85      -0.030
  J3                   JUNCTION     0.000    0.127     0  12:17           0        7.08       0.356
  CSO7                 JUNCTION     0.078    0.078     0  10:41        1.11        1.11       0.016
  J5                   JUNCTION     0.102    0.167     0  10:46        1.04        2.15       0.006
  CSO9                 JUNCTION     0.153    0.153     0  10:41        1.19        1.19       0.006
  J8                   JUNCTION     0.573    0.691     0  10:41        5.61        6.79      -0.004
  CSO8                 JUNCTION     0.659    0.659     0  08:26        4.03        4.03      -0.039
  J10                  JUNCTION     0.744    1.023     0  08:26        3.06        7.05      -0.133
  J13                  JUNCTION     0.503    0.503     0  10:36        3.53        3.53      -0.170
  J15                  JUNCTION     0.000    1.110     0  10:41           0        15.2       0.389
  J16                  JUNCTION     0.923    0.923     0  10:36        4.79        4.79      -0.041
  CSO10                JUNCTION     0.265    0.265     0  10:36        1.59        1.59      -0.019
  J12                  JUNCTION     0.000    0.964     0  08:29           0          11       7.848
  J4                   JUNCTION     0.000    0.078     0  10:41           0        1.11       0.058
  J6                   JUNCTION     0.000    0.028     0  11:31           0        1.39       0.248
  J2                   JUNCTION     0.000    0.039     0  11:08           0           2       0.208
  J19                  JUNCTION     0.000    0.271     0  10:45           0          13       0.065
  J9                   JUNCTION     0.000    0.075     0  10:47           0        3.91       0.263
  J14                  JUNCTION     0.000    0.087     0  10:00           0         3.7       0.118
  J17                  JUNCTION     0.000    0.033     0  12:15           0        1.74       0.326
  J7                   JUNCTION     0.000    0.127     0  10:47           0        1.18       0.100
  J11                  JUNCTION     0.000    0.486     0  08:37           0        3.99       0.064
  J18                  JUNCTION     0.000    0.202     0  10:44           0        1.58      -0.013
  Out_to_WWTP          OUTFALL      0.000    0.271     0  10:47           0          13       0.000
  T5                   STORAGE      0.000    0.380     0  10:37           0        2.85       7.996
  T4                   STORAGE      0.000    0.163     0  10:47           0        2.15      10.315
  T6                   STORAGE      0.000    0.657     0  10:42           0        6.79       5.241
  T3                   STORAGE      0.000    0.910     0  08:33           0        10.2      15.638
  T2                   STORAGE      0.000    0.451     0  10:37           0        3.53      24.385
  T1                   STORAGE      0.000    1.014     0  10:43           0        15.1       2.015
  
  
  **********************
  Node Surcharge Summary
  **********************
  
  Surcharging occurs when water rises above the top of the highest conduit.
  ---------------------------------------------------------------------
                                               Max. Height   Min. Depth
                                   Hours       Above Crown    Below Rim
  Node                 Type      Surcharged         Meters       Meters
  ---------------------------------------------------------------------
  CSO7                 JUNCTION        0.47          0.945        0.000
  CSO9                 JUNCTION        0.53          1.682        0.000
  CSO8                 JUNCTION        0.86          1.547        0.000
  CSO10                JUNCTION        0.30          0.560        0.000
  J4                   JUNCTION        0.45          0.930        0.770
  
  
  *********************
  Node Flooding Summary
  *********************
  
  Flooding refers to all water that overflows a node, whether it ponds or not.
  --------------------------------------------------------------------------
                                                             Total   Maximum
                                 Maximum   Time of Max       Flood    Ponded
                        Hours       Rate    Occurrence      Volume     Depth
  Node                 Flooded       CMS   days hr:min    10^6 ltr    Meters
  --------------------------------------------------------------------------
  CSO7                    0.06     0.007      0  10:42       0.000     0.000
  CSO9                    0.14     0.028      0  10:36       0.006     0.000
  CSO8                    0.16     0.191      0  08:26       0.036     0.000
  CSO10                   0.16     0.091      0  10:36       0.015     0.000
  T5                      3.46     0.117      0  11:12       0.428     0.000
  T4                      3.61     0.055      0  11:31       0.288     0.000
  T6                      5.11     0.577      0  10:47       2.313     0.000
  T3                     10.22     0.446      0  11:51       2.492     0.000
  T2                      3.05     0.113      0  14:52       0.385     0.000
  T1                      2.82     0.710      0  10:45       1.551     0.000
  
  
  **********************
  Storage Volume Summary
  **********************
  
  --------------------------------------------------------------------------------------------------
                         Average     Avg  Evap Exfil       Maximum     Max    Time of Max    Maximum
                          Volume    Pcnt  Pcnt  Pcnt        Volume    Pcnt     Occurrence    Outflow
  Storage Unit           1000 m3    Full  Loss  Loss       1000 m3    Full    days hr:min        CMS
  --------------------------------------------------------------------------------------------------
  T5                       0.247      49     0     0         0.500     100       0  11:08      0.039
  T4                       0.263      53     0     0         0.500     100       0  11:31      0.028
  T6                       0.305      51     0     0         0.600     100       0  10:46      0.075
  T3                       1.539      59     0     0         2.600     100       0  11:50      0.204
  T2                       0.535      53     0     0         1.000     100       0  12:15      0.033
  T1                       0.320      46     0     0         0.700     100       0  10:45      0.271
  
  
  ***********************
  Outfall Loading Summary
  ***********************
  
  -----------------------------------------------------------
                         Flow       Avg       Max       Total
                         Freq      Flow      Flow      Volume
  Outfall Node           Pcnt       CMS       CMS    10^6 ltr
  -----------------------------------------------------------
  Out_to_WWTP           99.43     0.154     0.271      13.011
  -----------------------------------------------------------
  System                99.43     0.154     0.271      13.011
  
  
  ********************
  Link Flow Summary
  ********************
  
  -----------------------------------------------------------------------------
                                 Maximum  Time of Max   Maximum    Max/    Max/
                                  |Flow|   Occurrence   |Veloc|    Full    Full
  Link                 Type          CMS  days hr:min     m/sec    Flow   Depth
  -----------------------------------------------------------------------------
  C1                   CONDUIT     0.039     0  11:54      1.04    0.01    0.10
  C6                   CONDUIT     0.070     0  10:47      1.28    1.12    0.73
  C2                   CONDUIT     0.028     0  12:17      1.00    0.03    0.16
  C9                   CONDUIT     0.125     0  10:47      1.31    0.43    0.49
  C16                  CONDUIT     0.480     0  08:33      1.75    0.05    0.15
  C3                   CONDUIT     0.087     0  10:00      1.63    0.03    0.12
  C19                  CONDUIT     0.033     0  13:08      0.70    0.01    0.20
  C11                  CONDUIT     0.127     0  13:00      1.46    0.01    0.11
  C20                  CONDUIT     0.824     0  10:37      3.62    0.03    0.14
  C22                  CONDUIT     0.202     0  10:44      1.54    0.09    0.31
  C12                  CONDUIT     0.075     0  12:29      0.79    0.01    0.28
  C17                  CONDUIT     0.939     0  08:29      3.36    0.05    0.30
  C10                  CONDUIT     0.657     0  10:42      0.94    0.07    0.59
  C13                  CONDUIT     0.910     0  08:33      1.48    0.05    0.75
  C18                  CONDUIT     0.451     0  10:37      1.01    0.02    0.55
  C23                  CONDUIT     1.014     0  10:43      0.89    0.11    0.61
  C4                   CONDUIT     0.380     0  10:37      1.13    0.09    0.60
  C7                   CONDUIT     0.163     0  10:47      0.82    0.04    0.57
  C14                  CONDUIT     0.271     0  10:47      2.08    0.02    0.09
  C5                   CONDUIT     0.078     0  10:41      1.52    1.33    1.00
  C8                   CONDUIT     0.127     0  10:47      1.83    1.60    0.86
  C15                  CONDUIT     0.486     0  08:37      3.58    1.54    0.82
  C21                  CONDUIT     0.202     0  10:44      1.88    1.16    0.69
  V4                   ORIFICE     0.028     0  11:31                      0.35
  V5                   ORIFICE     0.039     0  11:08                      1.00
  V1                   ORIFICE     0.271     0  10:45                      1.00
  V6                   ORIFICE     0.075     0  10:47                      0.43
  V3                   ORIFICE     0.087     0  10:00                      0.65
  V2                   ORIFICE     0.033     0  12:15                      0.24
  
  
  ***************************
  Flow Classification Summary
  ***************************
  
  -------------------------------------------------------------------------------------
                      Adjusted    ---------- Fraction of Time in Flow Class ---------- 
                       /Actual         Up    Down  Sub   Sup   Up    Down  Norm  Inlet 
  Conduit               Length    Dry  Dry   Dry   Crit  Crit  Crit  Crit  Ltd   Ctrl  
  -------------------------------------------------------------------------------------
  C1                      1.00   0.00  0.00  0.00  0.13  0.87  0.00  0.00  0.96  0.00
  C6                      1.00   0.00  0.00  0.00  0.03  0.97  0.00  0.00  0.00  0.00
  C2                      1.00   0.00  0.00  0.00  0.38  0.61  0.00  0.00  0.98  0.00
  C9                      1.00   0.00  0.00  0.00  1.00  0.00  0.00  0.00  1.00  0.00
  C16                     1.00   0.00  0.25  0.00  0.37  0.38  0.00  0.00  0.30  0.00
  C3                      1.00   0.00  0.00  0.00  0.03  0.96  0.00  0.00  0.64  0.00
  C19                     1.00   0.00  0.00  0.00  1.00  0.00  0.00  0.00  1.00  0.00
  C11                     1.00   0.00  0.00  0.00  0.12  0.87  0.00  0.00  1.00  0.00
  C20                     1.00   0.00  0.00  0.00  0.64  0.36  0.00  0.00  0.99  0.00
  C22                     1.00   0.00  0.00  0.00  0.95  0.04  0.00  0.00  1.00  0.00
  C12                     1.00   0.00  0.00  0.00  0.79  0.21  0.00  0.00  1.00  0.00
  C17                     1.00   0.00  0.00  0.00  0.77  0.23  0.00  0.00  0.98  0.00
  C10                     1.00   0.00  0.00  0.00  0.83  0.17  0.00  0.00  0.98  0.00
  C13                     1.00   0.00  0.00  0.00  0.77  0.23  0.00  0.00  0.38  0.00
  C18                     1.00   0.00  0.00  0.00  0.93  0.07  0.00  0.00  0.98  0.00
  C23                     1.00   0.00  0.00  0.00  0.80  0.20  0.00  0.00  0.96  0.00
  C4                      1.00   0.00  0.00  0.00  0.84  0.16  0.00  0.00  0.98  0.00
  C7                      1.00   0.00  0.00  0.00  0.95  0.05  0.00  0.00  0.97  0.00
  C14                     1.00   0.00  0.00  0.00  0.00  1.00  0.00  0.00  0.41  0.00
  C5                      1.00   0.00  0.00  0.00  0.93  0.07  0.00  0.00  0.96  0.00
  C8                      1.00   0.00  0.00  0.00  0.24  0.76  0.00  0.00  0.00  0.00
  C15                     1.00   0.25  0.00  0.00  0.00  0.74  0.00  0.00  0.01  0.00
  C21                     1.00   0.00  0.00  0.00  0.00  1.00  0.00  0.00  0.00  0.00
  
  
  *************************
  Conduit Surcharge Summary
  *************************
  
  ----------------------------------------------------------------------------
                                                           Hours        Hours 
                         --------- Hours Full --------   Above Full   Capacity
  Conduit                Both Ends  Upstream  Dnstream   Normal Flow   Limited
  ----------------------------------------------------------------------------
  C6                          0.01      0.45      0.01      0.22         0.01
  C10                         0.01      0.01     14.55      0.01         0.01
  C13                         0.01      0.01     14.63      0.01         0.01
  C18                         0.01      0.01     13.46      0.01         0.01
  C23                         0.01      0.01     14.61      0.01         0.01
  C4                          0.01      0.01     14.75      0.01         0.01
  C7                          0.01      0.01     14.91      0.01         0.01
  C5                          0.42      0.47      0.61      0.45         0.37
  C8                          0.01      0.53      0.01      0.51         0.01
  C15                         0.01      0.86      0.01      0.96         0.01
  C21                         0.01      0.30      0.01      0.28         0.01
  

  Analysis begun on:  Mon Sep 20 16:14:23 2021
  Analysis ended on:  Mon Sep 20 16:14:24 2021
  Total elapsed time: 00:00:01