
  EPA STORM WATER MANAGEMENT MODEL - VERSION 5.1 (Build 5.3.0.dev0)
  --------------------------------------------------------------

  WARNING 09: time series interval greater than recording interval for Rain Gage RG1
  WARNING 09: time series interval greater than recording interval for Rain Gage RG2
  WARNING 09: time series interval greater than recording interval for Rain Gage RG3
  WARNING 09: time series interval greater than recording interval for Rain Gage RG4
  
  *********************************************************
  NOTE: The summary statistics displayed in this report are
  based on results found at every computational time step,  
  not just on results from each reporting time step.
  *********************************************************
  
  ****************
  Analysis Options
  ****************
  Flow Units ............... CMS
  Process Models:
    Rainfall/Runoff ........ YES
    RDII ................... NO
    Snowmelt ............... NO
    Groundwater ............ NO
    Flow Routing ........... YES
    Ponding Allowed ........ YES
    Water Quality .......... NO
  Infiltration Method ...... HORTON
  Flow Routing Method ...... DYNWAVE
  Surcharge Method ......... EXTRAN
  Starting Date ............ 08/28/2015 00:00:00
  Ending Date .............. 08/28/2015 23:40:00
  Antecedent Dry Days ...... 0.0
  Report Time Step ......... 00:01:00
  Wet Time Step ............ 00:01:00
  Dry Time Step ............ 00:01:00
  Routing Time Step ........ 5.00 sec
  Variable Time Step ....... YES
  Maximum Trials ........... 8
  Number of Threads ........ 1
  Head Tolerance ........... 0.001500 m
  
  
  **************************        Volume         Depth
  Runoff Quantity Continuity     hectare-m            mm
  **************************     ---------       -------
  Total Precipitation ......         2.028        11.255
  Evaporation Loss .........         0.000         0.000
  Infiltration Loss ........         0.000         0.000
  Surface Runoff ...........         1.649         9.154
  Final Storage ............         0.389         2.160
  Continuity Error (%) .....        -0.518
  
  
  **************************        Volume        Volume
  Flow Routing Continuity        hectare-m      10^6 ltr
  **************************     ---------     ---------
  Dry Weather Inflow .......         0.758         7.576
  Wet Weather Inflow .......         1.640        16.403
  Groundwater Inflow .......         0.000         0.000
  RDII Inflow ..............         0.000         0.000
  External Inflow ..........         0.000         0.000
  External Outflow .........         1.109        11.090
  Flooding Loss ............         0.215         2.146
  Evaporation Loss .........         0.000         0.000
  Exfiltration Loss ........         0.000         0.000
  Initial Stored Volume ....         0.000         0.000
  Final Stored Volume ......         0.835         8.348
  Continuity Error (%) .....         9.987
  
  
  *************************
  Highest Continuity Errors
  *************************
  Node T2 (25.75%)
  Node T3 (15.13%)
  Node T4 (14.18%)
  Node T6 (13.84%)
  Node T5 (13.31%)
  
  
  ***************************
  Time-Step Critical Elements
  ***************************
  None
  
  
  ********************************
  Highest Flow Instability Indexes
  ********************************
  All links are stable.
  
  
  *************************
  Routing Time Step Summary
  *************************
  Minimum Time Step           :     1.52 sec
  Average Time Step           :     5.00 sec
  Maximum Time Step           :     5.00 sec
  Percent in Steady State     :     0.00
  Average Iterations per Step :     2.09
  Percent Not Converging      :     0.28
  
  
  ***************************
  Subcatchment Runoff Summary
  ***************************
  
  ------------------------------------------------------------------------------------------------------------------------------
                            Total      Total      Total      Total     Imperv       Perv      Total       Total     Peak  Runoff
                           Precip      Runon       Evap      Infil     Runoff     Runoff     Runoff      Runoff   Runoff   Coeff
  Subcatchment                 mm         mm         mm         mm         mm         mm         mm    10^6 ltr      CMS
  ------------------------------------------------------------------------------------------------------------------------------
  SC01                       7.91       0.00       0.00       0.00       6.74       0.00       6.74        2.22     0.69   0.852
  SC02                      10.68       0.00       0.00       0.00       9.39       0.00       9.39        2.14     0.52   0.879
  SC03                      12.94       0.00       0.00       0.00      11.95       0.00      11.95        2.15     0.79   0.923
  SC04                      10.68       0.00       0.00       0.00       8.47       0.00       8.47        0.58     0.10   0.793
  SC05                       7.91       0.00       0.00       0.00       6.65       0.00       6.65        1.04     0.30   0.841
  SC06                      14.91       0.00       0.00       0.00      10.28       0.00      10.28        3.35     1.26   0.689
  SC07                      10.68       0.00       0.00       0.00       8.48       0.00       8.48        0.40     0.07   0.794
  SC08                      12.94       0.00       0.00       0.00      10.98       0.00      10.98        3.07     0.89   0.848
  SC09                      14.91       0.00       0.00       0.00      11.38       0.00      11.38        0.79     0.38   0.763
  SC010                      7.91       0.00       0.00       0.00       6.42       0.00       6.42        0.75     0.19   0.812
  
  
  ******************
  Node Depth Summary
  ******************
  
  ---------------------------------------------------------------------------------
                                 Average  Maximum  Maximum  Time of Max    Reported
                                   Depth    Depth      HGL   Occurrence   Max Depth
  Node                 Type       Meters   Meters   Meters  days hr:min      Meters
  ---------------------------------------------------------------------------------
  J1                   JUNCTION     0.05     0.18    34.18     0  23:22        0.18
  J3                   JUNCTION     0.09     0.11    18.11     0  15:22        0.11
  CSO7                 JUNCTION     0.08     1.01    35.01     0  13:48        0.73
  J5                   JUNCTION     0.05     0.13    32.13     0  23:32        0.13
  CSO9                 JUNCTION     0.10     2.00    42.00     0  23:25        2.00
  J8                   JUNCTION     0.08     0.37    36.37     0  23:32        0.36
  CSO8                 JUNCTION     0.11     2.00    34.00     0  23:15        2.00
  J10                  JUNCTION     0.07     0.32    29.32     0  23:27        0.32
  J13                  JUNCTION     0.04     0.18    29.18     0  13:27        0.18
  J15                  JUNCTION     0.12     0.30    15.30     0  23:27        0.30
  J16                  JUNCTION     0.04     0.19    30.19     0  23:21        0.19
  CSO10                JUNCTION     0.07     0.41    30.41     0  23:22        0.41
  J12                  JUNCTION     0.31     1.07    27.07     0  23:23        1.07
  J4                   JUNCTION     0.09     0.89    33.89     0  13:48        0.54
  J6                   JUNCTION     0.05     0.07    25.07     0  15:16        0.07
  J2                   JUNCTION     0.05     0.07    25.07     0  14:55        0.07
  J19                  JUNCTION     0.11     0.17     8.17     0  14:39        0.17
  J9                   JUNCTION     0.08     0.11    29.11     0  15:18        0.11
  J14                  JUNCTION     0.09     0.11    20.11     0  11:40        0.11
  J17                  JUNCTION     0.05     0.07    20.07     0  23:40        0.07
  J7                   JUNCTION     0.06     0.23    39.23     0  23:40        0.23
  J11                  JUNCTION     0.06     0.30    31.30     0  23:37        0.30
  J18                  JUNCTION     0.03     0.15    29.15     0  23:23        0.15
  Out_to_WWTP          OUTFALL      0.11     0.17     6.17     0  14:39        0.17
  T5                   STORAGE      1.42     3.57    30.57     0  14:53        3.57
  T4                   STORAGE      1.97     4.45    31.45     0  15:14        4.45
  T6                   STORAGE      2.23     5.00    36.00     0  13:56        5.00
  T3                   STORAGE      2.43     5.00    27.00     0  23:20        5.00
  T2                   STORAGE      1.65     4.06    25.06     0  23:40        4.06
  T1                   STORAGE      1.50     4.39    14.39     0  14:38        4.39
  
  
  *******************
  Node Inflow Summary
  *******************
  
  -------------------------------------------------------------------------------------------------
                                  Maximum  Maximum                  Lateral       Total        Flow
                                  Lateral    Total  Time of Max      Inflow      Inflow     Balance
                                   Inflow   Inflow   Occurrence      Volume      Volume       Error
  Node                 Type           CMS      CMS  days hr:min    10^6 ltr    10^6 ltr     Percent
  -------------------------------------------------------------------------------------------------
  J1                   JUNCTION     0.306    0.306     0  23:21        2.13        2.13       0.524
  J3                   JUNCTION     0.000    0.116     0  15:20           0        6.73       0.383
  CSO7                 JUNCTION     0.072    0.072     0  13:26       0.966       0.966       0.197
  J5                   JUNCTION     0.100    0.154     0  23:31        0.83        1.78       0.745
  CSO9                 JUNCTION     0.384    0.384     0  23:31        1.16        1.16       0.362
  J8                   JUNCTION     1.262    1.382     0  23:31        5.14        6.15       1.481
  CSO8                 JUNCTION     0.890    0.890     0  23:26        3.51        3.51       0.226
  J10                  JUNCTION     0.788    1.271     0  23:26        2.89        6.15       1.399
  J13                  JUNCTION     0.524    0.524     0  23:11        3.04        3.04       0.541
  J15                  JUNCTION     0.000    0.897     0  23:22           0        12.4       1.472
  J16                  JUNCTION     0.691    0.691     0  23:21        3.29        3.29       0.588
  CSO10                JUNCTION     0.189    0.189     0  23:21        1.02        1.02       0.470
  J12                  JUNCTION     0.000    1.169     0  23:27           0        9.97       9.027
  J4                   JUNCTION     0.000    0.070     0  13:26           0       0.964       1.558
  J6                   JUNCTION     0.000    0.026     0  15:14           0        1.18       0.315
  J2                   JUNCTION     0.000    0.033     0  14:53           0        1.56       0.300
  J19                  JUNCTION     0.000    0.253     0  14:38           0        11.1       0.101
  J9                   JUNCTION     0.000    0.075     0  13:57           0        3.84       0.442
  J14                  JUNCTION     0.000    0.068     0  11:40           0        4.01       0.107
  J17                  JUNCTION     0.000    0.030     0  23:40           0        1.43       0.405
  J7                   JUNCTION     0.000    0.127     0  23:40           0        1.03       2.545
  J11                  JUNCTION     0.000    0.486     0  23:37           0        3.33       2.323
  J18                  JUNCTION     0.000    0.174     0  23:22           0        1.02       1.662
  Out_to_WWTP          OUTFALL      0.000    0.253     0  14:39           0        11.1       0.000
  T5                   STORAGE      0.000    0.279     0  23:22           0        2.12      15.356
  T4                   STORAGE      0.000    0.148     0  23:32           0        1.77      16.526
  T6                   STORAGE      0.000    1.267     0  23:32           0        6.06      16.067
  T3                   STORAGE      0.000    1.463     0  23:26           0        9.15      17.830
  T2                   STORAGE      0.000    0.456     0  13:27           0        3.02      34.680
  T1                   STORAGE      0.000    0.778     0  23:27           0        12.2       5.258
  
  
  **********************
  Node Surcharge Summary
  **********************
  
  Surcharging occurs when water rises above the top of the highest conduit.
  ---------------------------------------------------------------------
                                               Max. Height   Min. Depth
                                   Hours       Above Crown    Below Rim
  Node                 Type      Surcharged         Meters       Meters
  ---------------------------------------------------------------------
  CSO7                 JUNCTION        0.50          0.756        0.189
  CSO9                 JUNCTION        0.48          1.682        0.000
  CSO8                 JUNCTION        0.43          1.547        0.000
  J4                   JUNCTION        0.17          0.589        1.111
  
  
  *********************
  Node Flooding Summary
  *********************
  
  Flooding refers to all water that overflows a node, whether it ponds or not.
  --------------------------------------------------------------------------
                                                             Total   Maximum
                                 Maximum   Time of Max       Flood    Ponded
                        Hours       Rate    Occurrence      Volume     Depth
  Node                 Flooded       CMS   days hr:min    10^6 ltr    Meters
  --------------------------------------------------------------------------
  CSO9                    0.25     0.257      0  23:31       0.126     0.000
  CSO8                    0.32     0.401      0  23:26       0.165     0.000
  T6                      1.61     1.080      0  23:39       0.779     0.000
  T3                      0.33     1.403      0  23:26       1.082     0.000
  
  
  **********************
  Storage Volume Summary
  **********************
  
  --------------------------------------------------------------------------------------------------
                         Average     Avg  Evap Exfil       Maximum     Max    Time of Max    Maximum
                          Volume    Pcnt  Pcnt  Pcnt        Volume    Pcnt     Occurrence    Outflow
  Storage Unit           1000 m3    Full  Loss  Loss       1000 m3    Full    days hr:min        CMS
  --------------------------------------------------------------------------------------------------
  T5                       0.142      28     0     0         0.357      71       0  14:53      0.033
  T4                       0.197      39     0     0         0.445      89       0  15:14      0.026
  T6                       0.268      45     0     0         0.600     100       0  13:56      0.075
  T3                       1.264      49     0     0         2.600     100       0  23:20      0.085
  T2                       0.331      33     0     0         0.812      81       0  23:40      0.030
  T1                       0.210      30     0     0         0.615      88       0  14:38      0.253
  
  
  ***********************
  Outfall Loading Summary
  ***********************
  
  -----------------------------------------------------------
                         Flow       Avg       Max       Total
                         Freq      Flow      Flow      Volume
  Outfall Node           Pcnt       CMS       CMS    10^6 ltr
  -----------------------------------------------------------
  Out_to_WWTP           99.43     0.131     0.253      11.090
  -----------------------------------------------------------
  System                99.43     0.131     0.253      11.090
  
  
  ********************
  Link Flow Summary
  ********************
  
  -----------------------------------------------------------------------------
                                 Maximum  Time of Max   Maximum    Max/    Max/
                                  |Flow|   Occurrence   |Veloc|    Full    Full
  Link                 Type          CMS  days hr:min     m/sec    Flow   Depth
  -----------------------------------------------------------------------------
  C1                   CONDUIT     0.033     0  14:55      0.95    0.01    0.09
  C6                   CONDUIT     0.065     0  13:48      1.27    1.03    0.71
  C2                   CONDUIT     0.026     0  15:16      1.00    0.03    0.15
  C9                   CONDUIT     0.127     0  23:40      1.16    0.43    0.59
  C16                  CONDUIT     0.486     0  23:32      1.79    0.05    0.15
  C3                   CONDUIT     0.068     0  11:40      1.51    0.03    0.11
  C19                  CONDUIT     0.030     0  23:40      0.63    0.01    0.18
  C11                  CONDUIT     0.116     0  15:22      1.42    0.01    0.10
  C20                  CONDUIT     0.629     0  23:21      3.51    0.02    0.12
  C22                  CONDUIT     0.162     0  23:23      1.47    0.07    0.28
  C12                  CONDUIT     0.075     0  15:18      0.93    0.01    0.29
  C17                  CONDUIT     1.120     0  23:27      2.51    0.06    0.34
  C10                  CONDUIT     1.267     0  23:32      1.47    0.13    0.62
  C13                  CONDUIT     1.463     0  23:26      1.74    0.09    0.77
  C18                  CONDUIT     0.456     0  13:27      1.28    0.02    0.55
  C23                  CONDUIT     0.778     0  23:27      1.09    0.09    0.60
  C4                   CONDUIT     0.279     0  23:22      1.13    0.07    0.59
  C7                   CONDUIT     0.148     0  23:32      0.82    0.04    0.57
  C14                  CONDUIT     0.253     0  14:39      2.04    0.01    0.08
  C5                   CONDUIT     0.070     0  13:26      1.53    1.19    1.00
  C8                   CONDUIT     0.127     0  23:40      1.83    1.60    0.86
  C15                  CONDUIT     0.486     0  23:37      3.55    1.55    0.83
  C21                  CONDUIT     0.174     0  23:22      1.86    1.00    0.62
  V4                   ORIFICE     0.026     0  15:14                      0.35
  V5                   ORIFICE     0.033     0  14:53                      1.00
  V1                   ORIFICE     0.253     0  14:38                      1.00
  V6                   ORIFICE     0.075     0  13:57                      0.43
  V3                   ORIFICE     0.068     0  11:40                      0.65
  V2                   ORIFICE     0.030     0  23:40                      0.24
  
  
  ***************************
  Flow Classification Summary
  ***************************
  
  -------------------------------------------------------------------------------------
                      Adjusted    ---------- Fraction of Time in Flow Class ---------- 
                       /Actual         Up    Down  Sub   Sup   Up    Down  Norm  Inlet 
  Conduit               Length    Dry  Dry   Dry   Crit  Crit  Crit  Crit  Ltd   Ctrl  
  -------------------------------------------------------------------------------------
  C1                      1.00   0.00  0.00  0.00  0.42  0.58  0.00  0.00  0.96  0.00
  C6                      1.00   0.00  0.00  0.00  0.04  0.96  0.00  0.00  0.00  0.00
  C2                      1.00   0.00  0.00  0.00  0.44  0.56  0.00  0.00  0.98  0.00
  C9                      1.00   0.00  0.00  0.00  1.00  0.00  0.00  0.00  1.00  0.00
  C16                     1.00   0.00  0.07  0.00  0.58  0.35  0.00  0.00  0.47  0.00
  C3                      1.00   0.00  0.00  0.00  0.03  0.96  0.00  0.00  0.46  0.00
  C19                     1.00   0.00  0.00  0.00  1.00  0.00  0.00  0.00  1.00  0.00
  C11                     1.00   0.00  0.00  0.00  0.11  0.89  0.00  0.00  1.00  0.00
  C20                     1.00   0.00  0.00  0.00  0.81  0.19  0.00  0.00  0.99  0.00
  C22                     1.00   0.00  0.00  0.00  0.97  0.03  0.00  0.00  1.00  0.00
  C12                     1.00   0.00  0.00  0.00  0.67  0.33  0.00  0.00  1.00  0.00
  C17                     1.00   0.00  0.00  0.00  0.53  0.47  0.00  0.00  0.98  0.00
  C10                     1.00   0.00  0.00  0.00  0.89  0.11  0.00  0.00  0.97  0.00
  C13                     1.00   0.00  0.00  0.00  0.90  0.10  0.00  0.00  0.51  0.00
  C18                     1.00   0.00  0.00  0.00  0.90  0.10  0.00  0.00  0.98  0.00
  C23                     1.00   0.00  0.00  0.00  0.89  0.11  0.00  0.00  0.96  0.00
  C4                      1.00   0.00  0.00  0.00  0.90  0.10  0.00  0.00  0.98  0.00
  C7                      1.00   0.00  0.00  0.00  0.95  0.05  0.00  0.00  0.97  0.00
  C14                     1.00   0.00  0.00  0.00  0.00  1.00  0.00  0.00  0.71  0.00
  C5                      1.00   0.00  0.00  0.00  0.91  0.09  0.00  0.00  0.95  0.00
  C8                      1.00   0.00  0.00  0.00  0.14  0.86  0.00  0.00  0.01  0.00
  C15                     1.00   0.07  0.00  0.00  0.01  0.92  0.00  0.00  0.02  0.00
  C21                     1.00   0.00  0.00  0.00  0.00  1.00  0.00  0.00  0.00  0.00
  
  
  *************************
  Conduit Surcharge Summary
  *************************
  
  ----------------------------------------------------------------------------
                                                           Hours        Hours 
                         --------- Hours Full --------   Above Full   Capacity
  Conduit                Both Ends  Upstream  Dnstream   Normal Flow   Limited
  ----------------------------------------------------------------------------
  C6                          0.01      0.17      0.01      0.02         0.01
  C10                         0.01      0.01     12.92      0.01         0.01
  C13                         0.01      0.01     10.67      0.01         0.01
  C18                         0.01      0.01     10.11      0.01         0.01
  C23                         0.01      0.01     11.76      0.01         0.01
  C4                          0.01      0.01     12.95      0.01         0.01
  C7                          0.01      0.01     13.95      0.01         0.01
  C5                          0.40      0.50      0.62      0.58         0.34
  C8                          0.01      0.48      0.01      0.47         0.01
  C15                         0.01      0.43      0.01      0.48         0.01
  

  Analysis begun on:  Mon Sep 20 16:30:15 2021
  Analysis ended on:  Mon Sep 20 16:30:16 2021
  Total elapsed time: 00:00:01