
  EPA STORM WATER MANAGEMENT MODEL - VERSION 5.1 (Build 5.3.0.dev0)
  --------------------------------------------------------------

  WARNING 09: time series interval greater than recording interval for Rain Gage RG1
  WARNING 09: time series interval greater than recording interval for Rain Gage RG2
  WARNING 09: time series interval greater than recording interval for Rain Gage RG3
  WARNING 09: time series interval greater than recording interval for Rain Gage RG4
  
  *********************************************************
  NOTE: The summary statistics displayed in this report are
  based on results found at every computational time step,  
  not just on results from each reporting time step.
  *********************************************************
  
  ****************
  Analysis Options
  ****************
  Flow Units ............... CMS
  Process Models:
    Rainfall/Runoff ........ YES
    RDII ................... NO
    Snowmelt ............... NO
    Groundwater ............ NO
    Flow Routing ........... YES
    Ponding Allowed ........ YES
    Water Quality .......... NO
  Infiltration Method ...... HORTON
  Flow Routing Method ...... DYNWAVE
  Surcharge Method ......... EXTRAN
  Starting Date ............ 08/28/2015 00:00:00
  Ending Date .............. 08/28/2015 23:40:00
  Antecedent Dry Days ...... 0.0
  Report Time Step ......... 00:01:00
  Wet Time Step ............ 00:01:00
  Dry Time Step ............ 00:01:00
  Routing Time Step ........ 5.00 sec
  Variable Time Step ....... YES
  Maximum Trials ........... 8
  Number of Threads ........ 1
  Head Tolerance ........... 0.001500 m
  
  
  **************************        Volume         Depth
  Runoff Quantity Continuity     hectare-m            mm
  **************************     ---------       -------
  Total Precipitation ......         3.680        20.423
  Evaporation Loss .........         0.000         0.000
  Infiltration Loss ........         0.000         0.000
  Surface Runoff ...........         3.603        19.992
  Final Storage ............         0.081         0.449
  Continuity Error (%) .....        -0.085
  
  
  **************************        Volume        Volume
  Flow Routing Continuity        hectare-m      10^6 ltr
  **************************     ---------     ---------
  Dry Weather Inflow .......         0.758         7.576
  Wet Weather Inflow .......         3.602        36.019
  Groundwater Inflow .......         0.000         0.000
  RDII Inflow ..............         0.000         0.000
  External Inflow ..........         0.000         0.000
  External Outflow .........         1.870        18.704
  Flooding Loss ............         1.425        14.252
  Evaporation Loss .........         0.000         0.000
  Exfiltration Loss ........         0.000         0.000
  Initial Stored Volume ....         0.000         0.000
  Final Stored Volume ......         0.815         8.149
  Continuity Error (%) .....         5.712
  
  
  *************************
  Highest Continuity Errors
  *************************
  Node T2 (17.75%)
  Node T3 (10.01%)
  Node T4 (9.89%)
  Node T5 (7.94%)
  Node T6 (7.64%)
  
  
  ***************************
  Time-Step Critical Elements
  ***************************
  None
  
  
  ********************************
  Highest Flow Instability Indexes
  ********************************
  Link C15 (1)
  Link C20 (1)
  
  
  *************************
  Routing Time Step Summary
  *************************
  Minimum Time Step           :     4.50 sec
  Average Time Step           :     5.00 sec
  Maximum Time Step           :     5.00 sec
  Percent in Steady State     :     0.00
  Average Iterations per Step :     2.15
  Percent Not Converging      :     1.11
  
  
  ***************************
  Subcatchment Runoff Summary
  ***************************
  
  ------------------------------------------------------------------------------------------------------------------------------
                            Total      Total      Total      Total     Imperv       Perv      Total       Total     Peak  Runoff
                           Precip      Runon       Evap      Infil     Runoff     Runoff     Runoff      Runoff   Runoff   Coeff
  Subcatchment                 mm         mm         mm         mm         mm         mm         mm    10^6 ltr      CMS
  ------------------------------------------------------------------------------------------------------------------------------
  SC01                      24.51       0.00       0.00       0.00      24.14       0.00      24.14        7.97     0.65   0.985
  SC02                      19.53       0.00       0.00       0.00      19.15       0.00      19.15        4.36     0.47   0.980
  SC03                      17.80       0.00       0.00       0.00      17.57       0.00      17.57        3.16     0.42   0.987
  SC04                      19.53       0.00       0.00       0.00      18.87       0.00      18.87        1.30     0.12   0.966
  SC05                      24.51       0.00       0.00       0.00      24.11       0.00      24.11        3.76     0.30   0.984
  SC06                      18.01       0.00       0.00       0.00      17.46       0.00      17.46        5.68     0.45   0.969
  SC07                      19.53       0.00       0.00       0.00      18.87       0.00      18.87        0.90     0.09   0.966
  SC08                      17.80       0.00       0.00       0.00      17.36       0.00      17.36        4.86     0.53   0.975
  SC09                      18.01       0.00       0.00       0.00      17.63       0.00      17.63        1.22     0.11   0.979
  SC010                     24.51       0.00       0.00       0.00      24.03       0.00      24.03        2.82     0.22   0.980
  
  
  ******************
  Node Depth Summary
  ******************
  
  ---------------------------------------------------------------------------------
                                 Average  Maximum  Maximum  Time of Max    Reported
                                   Depth    Depth      HGL   Occurrence   Max Depth
  Node                 Type       Meters   Meters   Meters  days hr:min      Meters
  ---------------------------------------------------------------------------------
  J1                   JUNCTION     0.07     0.18    34.18     0  04:31        0.18
  J3                   JUNCTION     0.10     0.11    18.11     0  09:49        0.11
  CSO7                 JUNCTION     0.11     1.20    35.20     0  04:12        1.20
  J5                   JUNCTION     0.06     0.15    32.15     0  04:37        0.15
  CSO9                 JUNCTION     0.11     1.76    41.76     0  04:16        1.73
  J8                   JUNCTION     0.10     0.24    36.24     0  04:22        0.24
  CSO8                 JUNCTION     0.15     2.00    34.00     0  04:10        2.00
  J10                  JUNCTION     0.09     0.27    29.27     0  04:22        0.27
  J13                  JUNCTION     0.06     0.18    29.18     0  04:36        0.18
  J15                  JUNCTION     0.17     0.31    15.31     0  04:33        0.31
  J16                  JUNCTION     0.07     0.19    30.19     0  04:31        0.19
  CSO10                JUNCTION     0.14     1.00    31.00     0  04:06        1.00
  J12                  JUNCTION     0.74     1.02    27.02     0  08:43        1.02
  J4                   JUNCTION     0.12     1.21    34.21     0  04:12        0.88
  J6                   JUNCTION     0.06     0.07    25.07     0  07:19        0.07
  J2                   JUNCTION     0.07     0.08    25.08     0  07:10        0.08
  J19                  JUNCTION     0.15     0.17     8.17     0  15:26        0.17
  J9                   JUNCTION     0.10     0.11    29.11     0  05:58        0.11
  J14                  JUNCTION     0.09     0.10    20.10     0  08:59        0.10
  J17                  JUNCTION     0.07     0.08    20.08     0  07:33        0.08
  J7                   JUNCTION     0.08     0.20    39.20     0  04:22        0.20
  J11                  JUNCTION     0.10     0.29    31.29     0  04:22        0.29
  J18                  JUNCTION     0.06     0.16    29.16     0  04:32        0.16
  Out_to_WWTP          OUTFALL      0.15     0.17     6.17     0  08:48        0.17
  T5                   STORAGE      3.95     5.00    32.00     0  04:49        5.00
  T4                   STORAGE      3.85     5.00    32.00     0  06:33        5.00
  T6                   STORAGE      4.06     5.00    36.00     0  04:39        5.00
  T3                   STORAGE      3.98     5.00    27.00     0  08:40        5.00
  T2                   STORAGE      4.05     5.00    26.00     0  06:39        5.00
  T1                   STORAGE      3.75     5.00    15.00     0  04:19        5.00
  
  
  *******************
  Node Inflow Summary
  *******************
  
  -------------------------------------------------------------------------------------------------
                                  Maximum  Maximum                  Lateral       Total        Flow
                                  Lateral    Total  Time of Max      Inflow      Inflow     Balance
                                   Inflow   Inflow   Occurrence      Volume      Volume       Error
  Node                 Type           CMS      CMS  days hr:min    10^6 ltr    10^6 ltr     Percent
  -------------------------------------------------------------------------------------------------
  J1                   JUNCTION     0.311    0.311     0  04:31        4.85        4.85       0.036
  J3                   JUNCTION     0.000    0.127     0  08:59           0        9.07       0.307
  CSO7                 JUNCTION     0.089    0.089     0  04:36        1.46        1.46       0.029
  J5                   JUNCTION     0.126    0.196     0  04:36        1.55           3       0.086
  CSO9                 JUNCTION     0.113    0.113     0  04:16         1.6         1.6       0.020
  J8                   JUNCTION     0.459    0.555     0  04:21        7.51        9.11       0.062
  CSO8                 JUNCTION     0.526    0.526     0  04:21        5.31        5.31       0.013
  J10                  JUNCTION     0.422    0.830     0  04:21        3.91         9.2       0.108
  J13                  JUNCTION     0.477    0.477     0  04:36        5.26        5.26      -0.009
  J15                  JUNCTION     0.000    0.912     0  04:32           0        23.5       0.355
  J16                  JUNCTION     0.661    0.661     0  04:31        9.04        9.04       0.023
  CSO10                JUNCTION     0.220    0.220     0  04:31        3.09        3.09       0.001
  J12                  JUNCTION     0.000    0.842     0  04:22           0        14.6       5.905
  J4                   JUNCTION     0.000    0.079     0  04:11           0        1.45       0.200
  J6                   JUNCTION     0.000    0.028     0  06:33           0        1.93       0.204
  J2                   JUNCTION     0.000    0.039     0  04:49           0         2.8       0.184
  J19                  JUNCTION     0.000    0.271     0  04:19           0        18.7       0.059
  J9                   JUNCTION     0.000    0.075     0  04:39           0        5.44       0.303
  J14                  JUNCTION     0.000    0.060     0  08:40           0        4.36       0.100
  J17                  JUNCTION     0.000    0.033     0  06:39           0        2.38       0.278
  J7                   JUNCTION     0.000    0.113     0  04:16           0         1.6       0.184
  J11                  JUNCTION     0.000    0.484     0  04:22           0         5.3       0.237
  J18                  JUNCTION     0.000    0.202     0  04:32           0        3.09       0.122
  Out_to_WWTP          OUTFALL      0.000    0.271     0  15:27           0        18.7       0.000
  T5                   STORAGE      0.000    0.288     0  04:31           0        4.85       8.621
  T4                   STORAGE      0.000    0.189     0  04:37           0           3      10.972
  T6                   STORAGE      0.000    0.532     0  04:22           0         9.1       8.272
  T3                   STORAGE      0.000    0.814     0  04:28           0        13.8      11.125
  T2                   STORAGE      0.000    0.442     0  04:36           0        5.27      21.578
  T1                   STORAGE      0.000    0.839     0  04:33           0        23.5       2.533
  
  
  **********************
  Node Surcharge Summary
  **********************
  
  Surcharging occurs when water rises above the top of the highest conduit.
  ---------------------------------------------------------------------
                                               Max. Height   Min. Depth
                                   Hours       Above Crown    Below Rim
  Node                 Type      Surcharged         Meters       Meters
  ---------------------------------------------------------------------
  CSO7                 JUNCTION        0.84          0.945        0.000
  CSO9                 JUNCTION        0.51          1.446        0.236
  CSO8                 JUNCTION        0.53          1.547        0.000
  CSO10                JUNCTION        0.32          0.560        0.000
  J4                   JUNCTION        0.81          0.908        0.792
  
  
  *********************
  Node Flooding Summary
  *********************
  
  Flooding refers to all water that overflows a node, whether it ponds or not.
  --------------------------------------------------------------------------
                                                             Total   Maximum
                                 Maximum   Time of Max       Flood    Ponded
                        Hours       Rate    Occurrence      Volume     Depth
  Node                 Flooded       CMS   days hr:min    10^6 ltr    Meters
  --------------------------------------------------------------------------
  CSO7                    0.38     0.019      0  04:36       0.009     0.000
  CSO8                    0.05     0.062      0  04:10       0.003     0.000
  CSO10                   0.03     0.034      0  04:31       0.002     0.000
  T5                      7.21     0.240      0  15:37       1.285     0.000
  T4                      5.98     0.036      0  09:27       0.361     0.000
  T6                     10.52     0.406      0  04:39       2.481     0.000
  T3                     15.00     0.443      0  08:47       5.458     0.000
  T2                      7.69     0.116      0  09:13       0.969     0.000
  T1                      5.84     0.569      0  04:33       3.684     0.000
  
  
  **********************
  Storage Volume Summary
  **********************
  
  --------------------------------------------------------------------------------------------------
                         Average     Avg  Evap Exfil       Maximum     Max    Time of Max    Maximum
                          Volume    Pcnt  Pcnt  Pcnt        Volume    Pcnt     Occurrence    Outflow
  Storage Unit           1000 m3    Full  Loss  Loss       1000 m3    Full    days hr:min        CMS
  --------------------------------------------------------------------------------------------------
  T5                       0.395      79     0     0         0.500     100       0  04:49      0.039
  T4                       0.385      77     0     0         0.500     100       0  06:33      0.028
  T6                       0.487      81     0     0         0.600     100       0  04:39      0.075
  T3                       2.070      80     0     0         2.600     100       0  08:40      0.060
  T2                       0.810      81     0     0         1.000     100       0  06:39      0.033
  T1                       0.525      75     0     0         0.700     100       0  04:19      0.271
  
  
  ***********************
  Outfall Loading Summary
  ***********************
  
  -----------------------------------------------------------
                         Flow       Avg       Max       Total
                         Freq      Flow      Flow      Volume
  Outfall Node           Pcnt       CMS       CMS    10^6 ltr
  -----------------------------------------------------------
  Out_to_WWTP           99.43     0.221     0.271      18.704
  -----------------------------------------------------------
  System                99.43     0.221     0.271      18.704
  
  
  ********************
  Link Flow Summary
  ********************
  
  -----------------------------------------------------------------------------
                                 Maximum  Time of Max   Maximum    Max/    Max/
                                  |Flow|   Occurrence   |Veloc|    Full    Full
  Link                 Type          CMS  days hr:min     m/sec    Flow   Depth
  -----------------------------------------------------------------------------
  C1                   CONDUIT     0.039     0  07:11      1.09    0.01    0.10
  C6                   CONDUIT     0.071     0  04:37      1.29    1.13    0.74
  C2                   CONDUIT     0.028     0  07:18      1.01    0.03    0.16
  C9                   CONDUIT     0.102     0  04:22      1.22    0.35    0.44
  C16                  CONDUIT     0.456     0  04:23      1.73    0.04    0.14
  C3                   CONDUIT     0.060     0  08:59      1.36    0.02    0.11
  C19                  CONDUIT     0.033     0  07:33      0.68    0.01    0.19
  C11                  CONDUIT     0.127     0  09:48      1.42    0.01    0.10
  C20                  CONDUIT     0.609     0  04:31      2.84    0.02    0.12
  C22                  CONDUIT     0.192     0  04:32      1.58    0.09    0.29
  C12                  CONDUIT     0.075     0  05:58      0.94    0.01    0.28
  C17                  CONDUIT     0.782     0  04:22      2.91    0.04    0.30
  C10                  CONDUIT     0.532     0  04:22      0.94    0.05    0.58
  C13                  CONDUIT     0.814     0  04:28      1.20    0.05    0.75
  C18                  CONDUIT     0.442     0  04:36      1.01    0.02    0.54
  C23                  CONDUIT     0.839     0  04:33      1.08    0.09    0.60
  C4                   CONDUIT     0.288     0  04:31      1.13    0.07    0.59
  C7                   CONDUIT     0.189     0  04:37      0.82    0.05    0.57
  C14                  CONDUIT     0.271     0  15:27      2.08    0.02    0.09
  C5                   CONDUIT     0.079     0  04:11      1.53    1.34    1.00
  C8                   CONDUIT     0.113     0  04:16      1.70    1.43    0.82
  C15                  CONDUIT     0.484     0  04:22      3.48    1.54    0.82
  C21                  CONDUIT     0.202     0  04:32      1.84    1.15    0.68
  V4                   ORIFICE     0.028     0  06:33                      0.35
  V5                   ORIFICE     0.039     0  04:49                      1.00
  V1                   ORIFICE     0.271     0  04:19                      1.00
  V6                   ORIFICE     0.075     0  04:39                      0.43
  V3                   ORIFICE     0.060     0  08:40                      0.65
  V2                   ORIFICE     0.033     0  06:39                      0.24
  
  
  ***************************
  Flow Classification Summary
  ***************************
  
  -------------------------------------------------------------------------------------
                      Adjusted    ---------- Fraction of Time in Flow Class ---------- 
                       /Actual         Up    Down  Sub   Sup   Up    Down  Norm  Inlet 
  Conduit               Length    Dry  Dry   Dry   Crit  Crit  Crit  Crit  Ltd   Ctrl  
  -------------------------------------------------------------------------------------
  C1                      1.00   0.00  0.00  0.00  0.01  0.98  0.00  0.00  0.96  0.00
  C6                      1.00   0.00  0.00  0.00  0.05  0.95  0.00  0.00  0.00  0.00
  C2                      1.00   0.00  0.00  0.00  0.13  0.87  0.00  0.00  0.98  0.00
  C9                      1.00   0.00  0.00  0.00  1.00  0.00  0.00  0.00  1.00  0.00
  C16                     1.00   0.00  0.04  0.00  0.19  0.77  0.00  0.00  0.12  0.00
  C3                      1.00   0.00  0.00  0.00  0.03  0.96  0.00  0.00  0.89  0.00
  C19                     1.00   0.00  0.00  0.00  1.00  0.00  0.00  0.00  1.00  0.00
  C11                     1.00   0.00  0.00  0.00  0.27  0.73  0.00  0.00  1.00  0.00
  C20                     1.00   0.00  0.00  0.00  0.49  0.51  0.00  0.00  0.99  0.00
  C22                     1.00   0.00  0.00  0.00  0.89  0.11  0.00  0.00  1.00  0.00
  C12                     1.00   0.00  0.00  0.00  0.99  0.00  0.00  0.00  1.00  0.00
  C17                     1.00   0.00  0.00  0.00  0.79  0.21  0.00  0.00  0.99  0.00
  C10                     1.00   0.00  0.00  0.00  0.93  0.07  0.00  0.00  0.98  0.00
  C13                     1.00   0.00  0.00  0.00  0.91  0.09  0.00  0.00  0.16  0.00
  C18                     1.00   0.00  0.00  0.00  0.92  0.08  0.00  0.00  0.98  0.00
  C23                     1.00   0.00  0.00  0.00  0.92  0.08  0.00  0.00  0.96  0.00
  C4                      1.00   0.00  0.00  0.00  0.93  0.07  0.00  0.00  0.98  0.00
  C7                      1.00   0.00  0.00  0.00  0.95  0.05  0.00  0.00  0.97  0.00
  C14                     1.00   0.00  0.00  0.00  0.00  1.00  0.00  0.00  0.21  0.00
  C5                      1.00   0.00  0.00  0.00  0.86  0.14  0.00  0.00  0.95  0.00
  C8                      1.00   0.00  0.00  0.00  0.07  0.93  0.00  0.00  0.00  0.00
  C15                     1.00   0.04  0.00  0.00  0.00  0.96  0.00  0.00  0.00  0.00
  C21                     1.00   0.00  0.00  0.00  0.01  0.99  0.00  0.00  0.00  0.00
  
  
  *************************
  Conduit Surcharge Summary
  *************************
  
  ----------------------------------------------------------------------------
                                                           Hours        Hours 
                         --------- Hours Full --------   Above Full   Capacity
  Conduit                Both Ends  Upstream  Dnstream   Normal Flow   Limited
  ----------------------------------------------------------------------------
  C6                          0.01      0.81      0.01      0.61         0.01
  C10                         0.01      0.01     19.73      0.01         0.01
  C13                         0.01      0.01     19.21      0.01         0.01
  C18                         0.01      0.01     19.46      0.01         0.01
  C23                         0.01      0.01     19.93      0.01         0.01
  C4                          0.01      0.01     19.98      0.01         0.01
  C7                          0.01      0.01     19.71      0.01         0.01
  C5                          0.81      0.84      0.95      0.83         0.75
  C8                          0.01      0.51      0.01      0.51         0.01
  C15                         0.01      0.53      0.01      0.57         0.01
  C21                         0.01      0.33      0.01      0.25         0.01
  

  Analysis begun on:  Mon Sep 20 16:51:48 2021
  Analysis ended on:  Mon Sep 20 16:51:49 2021
  Total elapsed time: 00:00:01