
  EPA STORM WATER MANAGEMENT MODEL - VERSION 5.1 (Build 5.3.0.dev0)
  --------------------------------------------------------------

  
  *********************************************************
  NOTE: The summary statistics displayed in this report are
  based on results found at every computational time step,  
  not just on results from each reporting time step.
  *********************************************************
  
  ****************
  Analysis Options
  ****************
  Flow Units ............... CMS
  Process Models:
    Rainfall/Runoff ........ YES
    RDII ................... NO
    Snowmelt ............... NO
    Groundwater ............ NO
    Flow Routing ........... YES
    Ponding Allowed ........ YES
    Water Quality .......... NO
  Infiltration Method ...... HORTON
  Flow Routing Method ...... DYNWAVE
  Surcharge Method ......... EXTRAN
  Starting Date ............ 08/28/2015 08:00:00
  Ending Date .............. 08/28/2015 15:50:00
  Antecedent Dry Days ...... 0.0
  Report Time Step ......... 00:01:00
  Wet Time Step ............ 00:01:00
  Dry Time Step ............ 00:01:00
  Routing Time Step ........ 5.00 sec
  Variable Time Step ....... YES
  Maximum Trials ........... 8
  Number of Threads ........ 1
  Head Tolerance ........... 0.001500 m
  
  
  **************************        Volume         Depth
  Runoff Quantity Continuity     hectare-m            mm
  **************************     ---------       -------
  Total Precipitation ......         1.011         5.610
  Evaporation Loss .........         0.000         0.000
  Infiltration Loss ........         0.000         0.000
  Surface Runoff ...........         0.988         5.480
  Final Storage ............         0.023         0.130
  Continuity Error (%) .....        -0.009
  
  
  **************************        Volume        Volume
  Flow Routing Continuity        hectare-m      10^6 ltr
  **************************     ---------     ---------
  Dry Weather Inflow .......         0.396         3.956
  Wet Weather Inflow .......         0.988         9.876
  Groundwater Inflow .......         0.000         0.000
  RDII Inflow ..............         0.000         0.000
  External Inflow ..........         0.000         0.000
  External Outflow .........         0.489         4.891
  Flooding Loss ............         0.112         1.117
  Evaporation Loss .........         0.000         0.000
  Exfiltration Loss ........         0.000         0.000
  Initial Stored Volume ....         0.000         0.000
  Final Stored Volume ......         0.606         6.064
  Continuity Error (%) .....        12.726
  
  
  *************************
  Highest Continuity Errors
  *************************
  Node T2 (35.34%)
  Node T5 (34.92%)
  Node T4 (24.50%)
  Node T6 (22.04%)
  Node T3 (21.20%)
  
  
  ***************************
  Time-Step Critical Elements
  ***************************
  None
  
  
  ********************************
  Highest Flow Instability Indexes
  ********************************
  All links are stable.
  
  
  *************************
  Routing Time Step Summary
  *************************
  Minimum Time Step           :     2.18 sec
  Average Time Step           :     5.00 sec
  Maximum Time Step           :     5.00 sec
  Percent in Steady State     :     0.00
  Average Iterations per Step :     2.11
  Percent Not Converging      :     0.55
  
  
  ***************************
  Subcatchment Runoff Summary
  ***************************
  
  ------------------------------------------------------------------------------------------------------------------------------
                            Total      Total      Total      Total     Imperv       Perv      Total       Total     Peak  Runoff
                           Precip      Runon       Evap      Infil     Runoff     Runoff     Runoff      Runoff   Runoff   Coeff
  Subcatchment                 mm         mm         mm         mm         mm         mm         mm    10^6 ltr      CMS
  ------------------------------------------------------------------------------------------------------------------------------
  SC01                       5.61       0.00       0.00       0.00       5.52       0.00       5.52        1.82     0.56   0.985
  SC02                       5.61       0.00       0.00       0.00       5.52       0.00       5.52        1.26     0.38   0.984
  SC03                       5.61       0.00       0.00       0.00       5.54       0.00       5.54        1.00     0.33   0.988
  SC04                       5.61       0.00       0.00       0.00       5.42       0.00       5.42        0.37     0.09   0.966
  SC05                       5.61       0.00       0.00       0.00       5.52       0.00       5.52        0.86     0.26   0.984
  SC06                       5.61       0.00       0.00       0.00       5.37       0.00       5.37        1.75     0.41   0.956
  SC07                       5.61       0.00       0.00       0.00       5.42       0.00       5.42        0.26     0.06   0.966
  SC08                       5.61       0.00       0.00       0.00       5.49       0.00       5.49        1.54     0.44   0.979
  SC09                       5.61       0.00       0.00       0.00       5.47       0.00       5.47        0.38     0.10   0.975
  SC010                      5.61       0.00       0.00       0.00       5.50       0.00       5.50        0.65     0.19   0.980
  
  
  ******************
  Node Depth Summary
  ******************
  
  ---------------------------------------------------------------------------------
                                 Average  Maximum  Maximum  Time of Max    Reported
                                   Depth    Depth      HGL   Occurrence   Max Depth
  Node                 Type       Meters   Meters   Meters  days hr:min      Meters
  ---------------------------------------------------------------------------------
  J1                   JUNCTION     0.07     0.18    34.18     0  03:01        0.18
  J3                   JUNCTION     0.07     0.11    18.11     0  06:05        0.11
  CSO7                 JUNCTION     0.11     1.20    35.20     0  03:00        1.20
  J5                   JUNCTION     0.06     0.14    32.14     0  03:02        0.14
  CSO9                 JUNCTION     0.12     1.38    41.38     0  03:01        1.38
  J8                   JUNCTION     0.10     0.24    36.24     0  03:01        0.24
  CSO8                 JUNCTION     0.14     1.64    33.64     0  03:01        1.63
  J10                  JUNCTION     0.09     0.26    29.26     0  03:01        0.26
  J13                  JUNCTION     0.06     0.17    29.17     0  03:01        0.17
  J15                  JUNCTION     0.15     0.30    15.30     0  03:02        0.30
  J16                  JUNCTION     0.06     0.19    30.19     0  03:01        0.19
  CSO10                JUNCTION     0.11     1.00    31.00     0  03:00        0.82
  J12                  JUNCTION     0.13     0.29    26.29     0  03:03        0.29
  J4                   JUNCTION     0.13     1.47    34.47     0  03:00        0.76
  J6                   JUNCTION     0.04     0.07    25.07     0  05:08        0.07
  J2                   JUNCTION     0.00     0.00    25.00     0  00:00        0.00
  J19                  JUNCTION     0.13     0.17     8.17     0  03:25        0.17
  J9                   JUNCTION     0.07     0.11    29.11     0  04:23        0.11
  J14                  JUNCTION     0.09     0.14    20.14     0  06:29        0.14
  J17                  JUNCTION     0.04     0.07    20.07     0  04:56        0.07
  J7                   JUNCTION     0.08     0.21    39.21     0  03:02        0.21
  J11                  JUNCTION     0.09     0.28    31.28     0  03:01        0.28
  J18                  JUNCTION     0.05     0.15    29.15     0  03:01        0.15
  Out_to_WWTP          OUTFALL      0.13     0.17     6.17     0  03:50        0.17
  T5                   STORAGE      3.44     5.00    32.00     0  03:27        5.00
  T4                   STORAGE      2.49     3.86    30.86     0  05:06        3.86
  T6                   STORAGE      3.43     5.00    36.00     0  03:06        5.00
  T3                   STORAGE      2.18     3.39    25.39     0  06:19        3.39
  T2                   STORAGE      2.23     3.35    24.35     0  04:54        3.35
  T1                   STORAGE      2.68     5.00    15.00     0  03:24        5.00
  
  
  *******************
  Node Inflow Summary
  *******************
  
  -------------------------------------------------------------------------------------------------
                                  Maximum  Maximum                  Lateral       Total        Flow
                                  Lateral    Total  Time of Max      Inflow      Inflow     Balance
                                   Inflow   Inflow   Occurrence      Volume      Volume       Error
  Node                 Type           CMS      CMS  days hr:min    10^6 ltr    10^6 ltr     Percent
  -------------------------------------------------------------------------------------------------
  J1                   JUNCTION     0.283    0.283     0  03:01        1.42        1.42       0.064
  J3                   JUNCTION     0.000    0.126     0  06:03           0        2.26       1.325
  CSO7                 JUNCTION     0.077    0.077     0  03:01       0.548       0.548       0.085
  J5                   JUNCTION     0.099    0.169     0  03:01       0.501        1.04       0.178
  CSO9                 JUNCTION     0.110    0.110     0  03:01       0.573       0.573       0.077
  J8                   JUNCTION     0.451    0.552     0  03:01        2.69        3.26       0.195
  CSO8                 JUNCTION     0.448    0.448     0  03:01        1.83        1.83       0.029
  J10                  JUNCTION     0.343    0.764     0  03:01        1.38        3.21       0.157
  J13                  JUNCTION     0.399    0.399     0  03:01        1.72        1.72      -0.154
  J15                  JUNCTION     0.000    0.871     0  03:01           0        5.88       1.137
  J16                  JUNCTION     0.583    0.583     0  03:01        2.38        2.38      -0.013
  CSO10                JUNCTION     0.191    0.191     0  03:01       0.785       0.785       0.046
  J12                  JUNCTION     0.000    0.810     0  03:01           0        4.56       0.510
  J4                   JUNCTION     0.000    0.075     0  03:00           0       0.547       0.612
  J6                   JUNCTION     0.000    0.025     0  05:06           0       0.442       0.763
  J2                   JUNCTION     0.000    0.000     0  00:00           0           0       0.000 ltr
  J19                  JUNCTION     0.000    0.271     0  03:24           0         4.9       0.209
  J9                   JUNCTION     0.000    0.075     0  03:06           0        1.38       1.517
  J14                  JUNCTION     0.000    0.102     0  06:19           0        1.83       0.327
  J17                  JUNCTION     0.000    0.027     0  04:54           0       0.494       1.356
  J7                   JUNCTION     0.000    0.110     0  03:01           0       0.573       0.556
  J11                  JUNCTION     0.000    0.448     0  03:01           0        1.83       0.331
  J18                  JUNCTION     0.000    0.191     0  03:01           0       0.785       0.093
  Out_to_WWTP          OUTFALL      0.000    0.271     0  03:25           0        4.89       0.000
  T5                   STORAGE      0.000    0.279     0  03:01           0        1.42      53.669
  T4                   STORAGE      0.000    0.165     0  03:02           0        1.04      32.456
  T6                   STORAGE      0.000    0.539     0  03:01           0        3.25      28.273
  T3                   STORAGE      0.000    0.778     0  03:03           0        4.54      26.901
  T2                   STORAGE      0.000    0.393     0  03:01           0        1.73      54.661
  T1                   STORAGE      0.000    0.816     0  03:02           0        5.82       9.005
  
  
  **********************
  Node Surcharge Summary
  **********************
  
  Surcharging occurs when water rises above the top of the highest conduit.
  ---------------------------------------------------------------------
                                               Max. Height   Min. Depth
                                   Hours       Above Crown    Below Rim
  Node                 Type      Surcharged         Meters       Meters
  ---------------------------------------------------------------------
  CSO7                 JUNCTION        0.21          0.945        0.000
  CSO9                 JUNCTION        0.24          1.067        0.615
  CSO8                 JUNCTION        0.21          1.187        0.360
  CSO10                JUNCTION        0.05          0.560        0.000
  J4                   JUNCTION        0.19          1.166        0.534
  
  
  *********************
  Node Flooding Summary
  *********************
  
  Flooding refers to all water that overflows a node, whether it ponds or not.
  --------------------------------------------------------------------------
                                                             Total   Maximum
                                 Maximum   Time of Max       Flood    Ponded
                        Hours       Rate    Occurrence      Volume     Depth
  Node                 Flooded       CMS   days hr:min    10^6 ltr    Meters
  --------------------------------------------------------------------------
  CSO7                    0.04     0.009      0  03:00       0.001     0.000
  CSO10                   0.01     0.009      0  03:00       0.000     0.000
  T5                      4.38     0.072      0  03:27       0.425     0.000
  T6                      1.97     0.410      0  03:06       0.648     0.000
  T1                      0.28     0.105      0  03:24       0.043     0.000
  
  
  **********************
  Storage Volume Summary
  **********************
  
  --------------------------------------------------------------------------------------------------
                         Average     Avg  Evap Exfil       Maximum     Max    Time of Max    Maximum
                          Volume    Pcnt  Pcnt  Pcnt        Volume    Pcnt     Occurrence    Outflow
  Storage Unit           1000 m3    Full  Loss  Loss       1000 m3    Full    days hr:min        CMS
  --------------------------------------------------------------------------------------------------
  T5                       0.344      69     0     0         0.500     100       0  03:27      0.000
  T4                       0.249      50     0     0         0.386      77       0  05:06      0.025
  T6                       0.411      69     0     0         0.600     100       0  03:06      0.075
  T3                       1.134      44     0     0         1.765      68       0  06:19      0.102
  T2                       0.446      45     0     0         0.669      67       0  04:54      0.027
  T1                       0.375      54     0     0         0.700     100       0  03:24      0.271
  
  
  ***********************
  Outfall Loading Summary
  ***********************
  
  -----------------------------------------------------------
                         Flow       Avg       Max       Total
                         Freq      Flow      Flow      Volume
  Outfall Node           Pcnt       CMS       CMS    10^6 ltr
  -----------------------------------------------------------
  Out_to_WWTP           99.01     0.175     0.271       4.891
  -----------------------------------------------------------
  System                99.01     0.175     0.271       4.891
  
  
  ********************
  Link Flow Summary
  ********************
  
  -----------------------------------------------------------------------------
                                 Maximum  Time of Max   Maximum    Max/    Max/
                                  |Flow|   Occurrence   |Veloc|    Full    Full
  Link                 Type          CMS  days hr:min     m/sec    Flow   Depth
  -----------------------------------------------------------------------------
  C1                   CONDUIT     0.000     0  00:00      0.00    0.00    0.06
  C6                   CONDUIT     0.070     0  03:02      1.29    1.12    0.73
  C2                   CONDUIT     0.025     0  05:08      1.00    0.03    0.15
  C9                   CONDUIT     0.103     0  03:02      1.22    0.35    0.45
  C16                  CONDUIT     0.429     0  03:02      1.69    0.04    0.14
  C3                   CONDUIT     0.102     0  06:19      1.77    0.04    0.13
  C19                  CONDUIT     0.027     0  04:56      0.60    0.01    0.18
  C11                  CONDUIT     0.126     0  06:05      1.47    0.01    0.10
  C20                  CONDUIT     0.575     0  03:01      2.64    0.02    0.12
  C22                  CONDUIT     0.182     0  03:01      1.53    0.08    0.29
  C12                  CONDUIT     0.075     0  04:23      1.09    0.01    0.10
  C17                  CONDUIT     0.740     0  03:01      2.86    0.04    0.14
  C10                  CONDUIT     0.539     0  03:01      1.65    0.06    0.58
  C13                  CONDUIT     0.778     0  03:03      1.31    0.05    0.57
  C18                  CONDUIT     0.393     0  03:01      1.72    0.01    0.54
  C23                  CONDUIT     0.816     0  03:02      1.22    0.09    0.60
  C4                   CONDUIT     0.279     0  03:01      1.97    0.07    0.59
  C7                   CONDUIT     0.165     0  03:02      1.41    0.04    0.57
  C14                  CONDUIT     0.271     0  03:25      2.08    0.02    0.09
  C5                   CONDUIT     0.075     0  03:00      1.47    1.29    1.00
  C8                   CONDUIT     0.110     0  03:01      1.58    1.39    0.82
  C15                  CONDUIT     0.448     0  03:01      3.21    1.42    0.81
  C21                  CONDUIT     0.191     0  03:01      1.76    1.09    0.68
  V4                   ORIFICE     0.025     0  05:06                      0.35
  V5                   ORIFICE     0.000     0  00:00                      0.00
  V1                   ORIFICE     0.271     0  03:24                      1.00
  V6                   ORIFICE     0.075     0  03:06                      0.43
  V3                   ORIFICE     0.102     0  06:19                      0.65
  V2                   ORIFICE     0.027     0  04:54                      0.24
  
  
  ***************************
  Flow Classification Summary
  ***************************
  
  -------------------------------------------------------------------------------------
                      Adjusted    ---------- Fraction of Time in Flow Class ---------- 
                       /Actual         Up    Down  Sub   Sup   Up    Down  Norm  Inlet 
  Conduit               Length    Dry  Dry   Dry   Crit  Crit  Crit  Crit  Ltd   Ctrl  
  -------------------------------------------------------------------------------------
  C1                      1.00   0.32  0.68  0.00  0.00  0.00  0.00  0.00  0.00  0.00
  C6                      1.00   0.00  0.00  0.00  0.05  0.95  0.00  0.00  0.00  0.00
  C2                      1.00   0.32  0.00  0.00  0.00  0.68  0.00  0.00  0.66  0.00
  C9                      1.00   0.00  0.00  0.00  1.00  0.00  0.00  0.00  1.00  0.00
  C16                     1.00   0.00  0.00  0.00  0.58  0.42  0.00  0.00  0.45  0.00
  C3                      1.00   0.32  0.00  0.00  0.00  0.68  0.00  0.00  0.00  0.00
  C19                     1.00   0.00  0.32  0.00  0.68  0.00  0.00  0.00  0.68  0.00
  C11                     1.00   0.00  0.32  0.00  0.12  0.56  0.00  0.00  0.68  0.00
  C20                     1.00   0.00  0.00  0.00  0.53  0.47  0.00  0.00  0.98  0.00
  C22                     1.00   0.00  0.00  0.00  0.71  0.29  0.00  0.00  1.00  0.00
  C12                     1.00   0.00  0.32  0.00  0.18  0.50  0.00  0.00  0.68  0.00
  C17                     1.00   0.00  0.00  0.00  0.38  0.62  0.00  0.00  0.91  0.00
  C10                     1.00   0.00  0.00  0.00  0.97  0.03  0.00  0.00  0.98  0.00
  C13                     1.00   0.00  0.00  0.00  0.88  0.12  0.00  0.00  0.91  0.00
  C18                     1.00   0.00  0.00  0.00  0.95  0.05  0.00  0.00  0.97  0.00
  C23                     1.00   0.00  0.00  0.00  0.80  0.20  0.00  0.00  0.94  0.00
  C4                      1.00   0.00  0.00  0.00  0.97  0.03  0.00  0.00  0.98  0.00
  C7                      1.00   0.00  0.00  0.00  0.95  0.05  0.00  0.00  0.97  0.00
  C14                     1.00   0.00  0.00  0.00  0.00  0.99  0.00  0.00  0.31  0.00
  C5                      1.00   0.00  0.00  0.00  0.88  0.12  0.00  0.00  0.95  0.00
  C8                      1.00   0.00  0.00  0.00  0.06  0.94  0.00  0.00  0.00  0.00
  C15                     1.00   0.00  0.00  0.00  0.00  1.00  0.00  0.00  0.00  0.00
  C21                     1.00   0.00  0.00  0.00  0.00  1.00  0.00  0.00  0.00  0.00
  
  
  *************************
  Conduit Surcharge Summary
  *************************
  
  ----------------------------------------------------------------------------
                                                           Hours        Hours 
                         --------- Hours Full --------   Above Full   Capacity
  Conduit                Both Ends  Upstream  Dnstream   Normal Flow   Limited
  ----------------------------------------------------------------------------
  C6                          0.01      0.19      0.01      0.09         0.01
  C10                         0.01      0.01      5.70      0.01         0.01
  C13                         0.01      0.01      4.82      0.01         0.01
  C18                         0.01      0.01      4.96      0.01         0.01
  C23                         0.01      0.01      5.28      0.01         0.01
  C4                          0.01      0.01      5.91      0.01         0.01
  C7                          0.01      0.01      5.58      0.01         0.01
  C5                          0.20      0.21      0.30      0.26         0.18
  C8                          0.01      0.24      0.01      0.26         0.01
  C15                         0.01      0.21      0.01      0.27         0.01
  C21                         0.01      0.05      0.01      0.05         0.01
  

  Analysis begun on:  Fri Sep  3 20:11:40 2021
  Analysis ended on:  Fri Sep  3 20:11:40 2021
  Total elapsed time: < 1 sec