
  EPA STORM WATER MANAGEMENT MODEL - VERSION 5.1 (Build 5.3.0.dev0)
  --------------------------------------------------------------

  
  *********************************************************
  NOTE: The summary statistics displayed in this report are
  based on results found at every computational time step,  
  not just on results from each reporting time step.
  *********************************************************
  
  ****************
  Analysis Options
  ****************
  Flow Units ............... CMS
  Process Models:
    Rainfall/Runoff ........ YES
    RDII ................... NO
    Snowmelt ............... NO
    Groundwater ............ NO
    Flow Routing ........... YES
    Ponding Allowed ........ YES
    Water Quality .......... NO
  Infiltration Method ...... HORTON
  Flow Routing Method ...... DYNWAVE
  Surcharge Method ......... EXTRAN
  Starting Date ............ 08/28/2015 08:00:00
  Ending Date .............. 08/28/2015 15:50:00
  Antecedent Dry Days ...... 0.0
  Report Time Step ......... 00:01:00
  Wet Time Step ............ 00:01:00
  Dry Time Step ............ 00:01:00
  Routing Time Step ........ 5.00 sec
  Variable Time Step ....... YES
  Maximum Trials ........... 8
  Number of Threads ........ 1
  Head Tolerance ........... 0.001500 m
  
  
  **************************        Volume         Depth
  Runoff Quantity Continuity     hectare-m            mm
  **************************     ---------       -------
  Total Precipitation ......         0.847         4.700
  Evaporation Loss .........         0.000         0.000
  Infiltration Loss ........         0.000         0.000
  Surface Runoff ...........         0.824         4.574
  Final Storage ............         0.023         0.127
  Continuity Error (%) .....        -0.007
  
  
  **************************        Volume        Volume
  Flow Routing Continuity        hectare-m      10^6 ltr
  **************************     ---------     ---------
  Dry Weather Inflow .......         0.396         3.955
  Wet Weather Inflow .......         0.824         8.242
  Groundwater Inflow .......         0.000         0.000
  RDII Inflow ..............         0.000         0.000
  External Inflow ..........         0.000         0.000
  External Outflow .........         0.453         4.534
  Flooding Loss ............         0.056         0.559
  Evaporation Loss .........         0.000         0.000
  Exfiltration Loss ........         0.000         0.000
  Initial Stored Volume ....         0.000         0.000
  Final Stored Volume ......         0.564         5.639
  Continuity Error (%) .....        12.009
  
  
  *************************
  Highest Continuity Errors
  *************************
  Node T5 (38.88%)
  Node T2 (34.58%)
  Node T6 (24.52%)
  Node T4 (23.59%)
  Node T3 (20.75%)
  
  
  ***************************
  Time-Step Critical Elements
  ***************************
  None
  
  
  ********************************
  Highest Flow Instability Indexes
  ********************************
  All links are stable.
  
  
  *************************
  Routing Time Step Summary
  *************************
  Minimum Time Step           :     4.50 sec
  Average Time Step           :     5.00 sec
  Maximum Time Step           :     5.00 sec
  Percent in Steady State     :     0.00
  Average Iterations per Step :     2.00
  Percent Not Converging      :     0.00
  
  
  ***************************
  Subcatchment Runoff Summary
  ***************************
  
  ------------------------------------------------------------------------------------------------------------------------------
                            Total      Total      Total      Total     Imperv       Perv      Total       Total     Peak  Runoff
                           Precip      Runon       Evap      Infil     Runoff     Runoff     Runoff      Runoff   Runoff   Coeff
  Subcatchment                 mm         mm         mm         mm         mm         mm         mm    10^6 ltr      CMS
  ------------------------------------------------------------------------------------------------------------------------------
  SC01                       4.70       0.00       0.00       0.00       4.62       0.00       4.62        1.52     0.30   0.982
  SC02                       4.70       0.00       0.00       0.00       4.61       0.00       4.61        1.05     0.21   0.981
  SC03                       4.70       0.00       0.00       0.00       4.63       0.00       4.63        0.83     0.17   0.985
  SC04                       4.70       0.00       0.00       0.00       4.51       0.00       4.51        0.31     0.06   0.960
  SC05                       4.70       0.00       0.00       0.00       4.61       0.00       4.61        0.72     0.14   0.981
  SC06                       4.70       0.00       0.00       0.00       4.47       0.00       4.47        1.45     0.25   0.950
  SC07                       4.70       0.00       0.00       0.00       4.51       0.00       4.51        0.21     0.04   0.961
  SC08                       4.70       0.00       0.00       0.00       4.59       0.00       4.59        1.28     0.25   0.976
  SC09                       4.70       0.00       0.00       0.00       4.56       0.00       4.56        0.31     0.06   0.971
  SC010                      4.70       0.00       0.00       0.00       4.59       0.00       4.59        0.54     0.10   0.976
  
  
  ******************
  Node Depth Summary
  ******************
  
  ---------------------------------------------------------------------------------
                                 Average  Maximum  Maximum  Time of Max    Reported
                                   Depth    Depth      HGL   Occurrence   Max Depth
  Node                 Type       Meters   Meters   Meters  days hr:min      Meters
  ---------------------------------------------------------------------------------
  J1                   JUNCTION     0.07     0.14    34.14     0  03:01        0.14
  J3                   JUNCTION     0.07     0.11    18.11     0  06:20        0.11
  CSO7                 JUNCTION     0.09     0.18    34.18     0  03:01        0.18
  J5                   JUNCTION     0.06     0.11    32.11     0  03:01        0.11
  CSO9                 JUNCTION     0.10     0.23    40.23     0  03:01        0.23
  J8                   JUNCTION     0.10     0.19    36.19     0  03:01        0.19
  CSO8                 JUNCTION     0.12     0.32    32.32     0  03:01        0.32
  J10                  JUNCTION     0.09     0.20    29.20     0  03:01        0.20
  J13                  JUNCTION     0.06     0.13    29.13     0  03:01        0.13
  J15                  JUNCTION     0.14     0.25    15.25     0  03:02        0.25
  J16                  JUNCTION     0.06     0.14    30.14     0  03:01        0.14
  CSO10                JUNCTION     0.11     0.27    30.27     0  03:01        0.27
  J12                  JUNCTION     0.12     0.23    26.23     0  03:03        0.23
  J4                   JUNCTION     0.12     0.21    33.21     0  03:02        0.21
  J6                   JUNCTION     0.04     0.07    25.07     0  05:13        0.07
  J2                   JUNCTION     0.00     0.00    25.00     0  00:00        0.00
  J19                  JUNCTION     0.13     0.16     8.16     0  03:37        0.16
  J9                   JUNCTION     0.07     0.11    29.11     0  04:30        0.11
  J14                  JUNCTION     0.09     0.14    20.14     0  07:24        0.14
  J17                  JUNCTION     0.04     0.07    20.07     0  05:03        0.07
  J7                   JUNCTION     0.08     0.16    39.16     0  03:02        0.16
  J11                  JUNCTION     0.09     0.22    31.22     0  03:01        0.22
  J18                  JUNCTION     0.05     0.12    29.12     0  03:01        0.12
  Out_to_WWTP          OUTFALL      0.12     0.16     6.16     0  03:38        0.16
  T5                   STORAGE      3.39     5.00    32.00     0  04:18        5.00
  T4                   STORAGE      2.18     3.28    30.28     0  05:11        3.28
  T6                   STORAGE      3.42     5.00    36.00     0  03:17        5.00
  T3                   STORAGE      1.92     2.97    24.97     0  07:12        2.97
  T2                   STORAGE      1.93     2.82    23.82     0  05:01        2.82
  T1                   STORAGE      2.26     4.08    14.08     0  03:37        4.08
  
  
  *******************
  Node Inflow Summary
  *******************
  
  -------------------------------------------------------------------------------------------------
                                  Maximum  Maximum                  Lateral       Total        Flow
                                  Lateral    Total  Time of Max      Inflow      Inflow     Balance
                                   Inflow   Inflow   Occurrence      Volume      Volume       Error
  Node                 Type           CMS      CMS  days hr:min    10^6 ltr    10^6 ltr     Percent
  -------------------------------------------------------------------------------------------------
  J1                   JUNCTION     0.164    0.164     0  03:01        1.28        1.28       0.070
  J3                   JUNCTION     0.000    0.117     0  06:17           0        2.16       1.319
  CSO7                 JUNCTION     0.051    0.051     0  03:01       0.505       0.505       0.090
  J5                   JUNCTION     0.061    0.109     0  03:01       0.439        0.94       0.190
  CSO9                 JUNCTION     0.067    0.067     0  03:01       0.511       0.511       0.086
  J8                   JUNCTION     0.292    0.355     0  03:01        2.39         2.9       0.212
  CSO8                 JUNCTION     0.256    0.256     0  03:01        1.58        1.58       0.034
  J10                  JUNCTION     0.184    0.433     0  03:01        1.22        2.79       0.188
  J13                  JUNCTION     0.225    0.225     0  03:01        1.52        1.52      -0.178
  J15                  JUNCTION     0.000    0.541     0  03:01           0        5.34       1.190
  J16                  JUNCTION     0.323    0.323     0  03:01        2.08        2.08       0.004
  CSO10                JUNCTION     0.109    0.109     0  03:01       0.678       0.678       0.063
  J12                  JUNCTION     0.000    0.495     0  03:01           0        4.17       0.555
  J4                   JUNCTION     0.000    0.050     0  03:01           0       0.504       0.746
  J6                   JUNCTION     0.000    0.023     0  05:11           0        0.42       0.760
  J2                   JUNCTION     0.000    0.000     0  00:00           0           0       0.000 ltr
  J19                  JUNCTION     0.000    0.244     0  03:37           0        4.54       0.211
  J9                   JUNCTION     0.000    0.075     0  03:17           0        1.41       1.449
  J14                  JUNCTION     0.000    0.095     0  07:12           0        1.75       0.328
  J17                  JUNCTION     0.000    0.025     0  05:01           0       0.467       1.336
  J7                   JUNCTION     0.000    0.066     0  03:01           0        0.51       0.628
  J11                  JUNCTION     0.000    0.255     0  03:01           0        1.58       0.377
  J18                  JUNCTION     0.000    0.109     0  03:01           0       0.678       0.120
  Out_to_WWTP          OUTFALL      0.000    0.244     0  03:38           0        4.53       0.000
  T5                   STORAGE      0.000    0.162     0  03:01           0        1.28      63.609
  T4                   STORAGE      0.000    0.108     0  03:01           0       0.938      30.871
  T6                   STORAGE      0.000    0.350     0  03:01           0         2.9      32.484
  T3                   STORAGE      0.000    0.486     0  03:03           0        4.15      26.183
  T2                   STORAGE      0.000    0.222     0  03:01           0        1.52      52.859
  T1                   STORAGE      0.000    0.526     0  03:02           0        5.28       8.426
  
  
  **********************
  Node Surcharge Summary
  **********************
  
  No nodes were surcharged.
  
  
  *********************
  Node Flooding Summary
  *********************
  
  Flooding refers to all water that overflows a node, whether it ponds or not.
  --------------------------------------------------------------------------
                                                             Total   Maximum
                                 Maximum   Time of Max       Flood    Ponded
                        Hours       Rate    Occurrence      Volume     Depth
  Node                 Flooded       CMS   days hr:min    10^6 ltr    Meters
  --------------------------------------------------------------------------
  T5                      3.53     0.033      0  04:18       0.282     0.000
  T6                      1.72     0.163      0  03:17       0.277     0.000
  
  
  **********************
  Storage Volume Summary
  **********************
  
  --------------------------------------------------------------------------------------------------
                         Average     Avg  Evap Exfil       Maximum     Max    Time of Max    Maximum
                          Volume    Pcnt  Pcnt  Pcnt        Volume    Pcnt     Occurrence    Outflow
  Storage Unit           1000 m3    Full  Loss  Loss       1000 m3    Full    days hr:min        CMS
  --------------------------------------------------------------------------------------------------
  T5                       0.339      68     0     0         0.500     100       0  04:18      0.000
  T4                       0.218      44     0     0         0.328      66       0  05:11      0.023
  T6                       0.410      68     0     0         0.600     100       0  03:17      0.075
  T3                       1.000      38     0     0         1.546      59       0  07:12      0.095
  T2                       0.386      39     0     0         0.564      56       0  05:01      0.025
  T1                       0.316      45     0     0         0.572      82       0  03:37      0.244
  
  
  ***********************
  Outfall Loading Summary
  ***********************
  
  -----------------------------------------------------------
                         Flow       Avg       Max       Total
                         Freq      Flow      Flow      Volume
  Outfall Node           Pcnt       CMS       CMS    10^6 ltr
  -----------------------------------------------------------
  Out_to_WWTP           99.01     0.162     0.244       4.534
  -----------------------------------------------------------
  System                99.01     0.162     0.244       4.534
  
  
  ********************
  Link Flow Summary
  ********************
  
  -----------------------------------------------------------------------------
                                 Maximum  Time of Max   Maximum    Max/    Max/
                                  |Flow|   Occurrence   |Veloc|    Full    Full
  Link                 Type          CMS  days hr:min     m/sec    Flow   Depth
  -----------------------------------------------------------------------------
  C1                   CONDUIT     0.000     0  00:00      0.00    0.00    0.05
  C6                   CONDUIT     0.048     0  03:03      1.24    0.77    0.54
  C2                   CONDUIT     0.023     0  05:13      0.98    0.03    0.15
  C9                   CONDUIT     0.065     0  03:02      1.04    0.22    0.35
  C16                  CONDUIT     0.251     0  03:02      1.44    0.02    0.10
  C3                   CONDUIT     0.095     0  07:13      1.74    0.04    0.12
  C19                  CONDUIT     0.025     0  05:03      0.58    0.01    0.15
  C11                  CONDUIT     0.117     0  06:20      1.45    0.01    0.09
  C20                  CONDUIT     0.320     0  03:01      2.09    0.01    0.10
  C22                  CONDUIT     0.107     0  03:01      1.24    0.05    0.23
  C12                  CONDUIT     0.075     0  04:30      1.09    0.01    0.08
  C17                  CONDUIT     0.427     0  03:01      2.33    0.02    0.11
  C10                  CONDUIT     0.350     0  03:01      1.65    0.04    0.56
  C13                  CONDUIT     0.486     0  03:03      1.31    0.03    0.56
  C18                  CONDUIT     0.222     0  03:01      1.72    0.01    0.53
  C23                  CONDUIT     0.526     0  03:02      1.22    0.06    0.58
  C4                   CONDUIT     0.162     0  03:01      1.97    0.04    0.57
  C7                   CONDUIT     0.108     0  03:01      1.41    0.03    0.56
  C14                  CONDUIT     0.244     0  03:38      2.02    0.01    0.08
  C5                   CONDUIT     0.050     0  03:01      1.22    0.86    0.77
  C8                   CONDUIT     0.066     0  03:01      1.29    0.84    0.62
  C15                  CONDUIT     0.255     0  03:01      2.56    0.81    0.59
  C21                  CONDUIT     0.109     0  03:01      1.65    0.62    0.45
  V4                   ORIFICE     0.023     0  05:11                      0.35
  V5                   ORIFICE     0.000     0  00:00                      0.00
  V1                   ORIFICE     0.244     0  03:37                      1.00
  V6                   ORIFICE     0.075     0  03:17                      0.43
  V3                   ORIFICE     0.095     0  07:12                      0.65
  V2                   ORIFICE     0.025     0  05:01                      0.24
  
  
  ***************************
  Flow Classification Summary
  ***************************
  
  -------------------------------------------------------------------------------------
                      Adjusted    ---------- Fraction of Time in Flow Class ---------- 
                       /Actual         Up    Down  Sub   Sup   Up    Down  Norm  Inlet 
  Conduit               Length    Dry  Dry   Dry   Crit  Crit  Crit  Crit  Ltd   Ctrl  
  -------------------------------------------------------------------------------------
  C1                      1.00   0.30  0.70  0.00  0.00  0.00  0.00  0.00  0.00  0.00
  C6                      1.00   0.00  0.00  0.00  0.01  0.99  0.00  0.00  0.00  0.00
  C2                      1.00   0.30  0.00  0.00  0.00  0.70  0.00  0.00  0.68  0.00
  C9                      1.00   0.00  0.00  0.00  1.00  0.00  0.00  0.00  1.00  0.00
  C16                     1.00   0.00  0.00  0.00  0.59  0.41  0.00  0.00  0.49  0.00
  C3                      1.00   0.30  0.00  0.00  0.00  0.70  0.00  0.00  0.00  0.00
  C19                     1.00   0.00  0.30  0.00  0.70  0.00  0.00  0.00  0.70  0.00
  C11                     1.00   0.00  0.30  0.00  0.13  0.57  0.00  0.00  0.70  0.00
  C20                     1.00   0.00  0.00  0.00  0.53  0.47  0.00  0.00  0.98  0.00
  C22                     1.00   0.00  0.00  0.00  0.72  0.28  0.00  0.00  1.00  0.00
  C12                     1.00   0.00  0.30  0.00  0.18  0.52  0.00  0.00  0.70  0.00
  C17                     1.00   0.00  0.00  0.00  0.40  0.60  0.00  0.00  0.91  0.00
  C10                     1.00   0.00  0.00  0.00  0.97  0.03  0.00  0.00  0.98  0.00
  C13                     1.00   0.00  0.00  0.00  0.88  0.12  0.00  0.00  0.91  0.00
  C18                     1.00   0.00  0.00  0.00  0.95  0.05  0.00  0.00  0.97  0.00
  C23                     1.00   0.00  0.00  0.00  0.81  0.19  0.00  0.00  0.94  0.00
  C4                      1.00   0.00  0.00  0.00  0.97  0.03  0.00  0.00  0.98  0.00
  C7                      1.00   0.00  0.00  0.00  0.95  0.05  0.00  0.00  0.97  0.00
  C14                     1.00   0.00  0.00  0.00  0.00  0.99  0.00  0.00  0.33  0.00
  C5                      1.00   0.00  0.00  0.00  0.89  0.11  0.00  0.00  0.98  0.00
  C8                      1.00   0.00  0.00  0.00  0.00  1.00  0.00  0.00  0.00  0.00
  C15                     1.00   0.00  0.00  0.00  0.00  1.00  0.00  0.00  0.00  0.00
  C21                     1.00   0.00  0.00  0.00  0.00  1.00  0.00  0.00  0.00  0.00
  
  
  *************************
  Conduit Surcharge Summary
  *************************
  
  ----------------------------------------------------------------------------
                                                           Hours        Hours 
                         --------- Hours Full --------   Above Full   Capacity
  Conduit                Both Ends  Upstream  Dnstream   Normal Flow   Limited
  ----------------------------------------------------------------------------
  C10                         0.01      0.01      5.76      0.01         0.01
  C13                         0.01      0.01      4.76      0.01         0.01
  C18                         0.01      0.01      4.93      0.01         0.01
  C23                         0.01      0.01      5.36      0.01         0.01
  C4                          0.01      0.01      5.97      0.01         0.01
  C7                          0.01      0.01      5.65      0.01         0.01
  

  Analysis begun on:  Fri Sep  3 20:04:44 2021
  Analysis ended on:  Fri Sep  3 20:04:45 2021
  Total elapsed time: 00:00:01