
  EPA STORM WATER MANAGEMENT MODEL - VERSION 5.1 (Build 5.3.0.dev0)
  --------------------------------------------------------------

  
  *********************************************************
  NOTE: The summary statistics displayed in this report are
  based on results found at every computational time step,  
  not just on results from each reporting time step.
  *********************************************************
  
  ****************
  Analysis Options
  ****************
  Flow Units ............... CMS
  Process Models:
    Rainfall/Runoff ........ YES
    RDII ................... NO
    Snowmelt ............... NO
    Groundwater ............ NO
    Flow Routing ........... YES
    Ponding Allowed ........ YES
    Water Quality .......... NO
  Infiltration Method ...... HORTON
  Flow Routing Method ...... DYNWAVE
  Surcharge Method ......... EXTRAN
  Starting Date ............ 08/28/2015 08:00:00
  Ending Date .............. 08/28/2015 15:50:00
  Antecedent Dry Days ...... 0.0
  Report Time Step ......... 00:01:00
  Wet Time Step ............ 00:01:00
  Dry Time Step ............ 00:01:00
  Routing Time Step ........ 5.00 sec
  Variable Time Step ....... YES
  Maximum Trials ........... 8
  Number of Threads ........ 1
  Head Tolerance ........... 0.001500 m
  
  
  **************************        Volume         Depth
  Runoff Quantity Continuity     hectare-m            mm
  **************************     ---------       -------
  Total Precipitation ......         0.693         3.844
  Evaporation Loss .........         0.000         0.000
  Infiltration Loss ........         0.000         0.000
  Surface Runoff ...........         0.670         3.719
  Final Storage ............         0.023         0.125
  Continuity Error (%) .....        -0.008
  
  
  **************************        Volume        Volume
  Flow Routing Continuity        hectare-m      10^6 ltr
  **************************     ---------     ---------
  Dry Weather Inflow .......         0.396         3.955
  Wet Weather Inflow .......         0.670         6.702
  Groundwater Inflow .......         0.000         0.000
  RDII Inflow ..............         0.000         0.000
  External Inflow ..........         0.000         0.000
  External Outflow .........         0.401         4.014
  Flooding Loss ............         0.015         0.151
  Evaporation Loss .........         0.000         0.000
  Exfiltration Loss ........         0.000         0.000
  Initial Stored Volume ....         0.000         0.000
  Final Stored Volume ......         0.528         5.277
  Continuity Error (%) .....        11.407
  
  
  *************************
  Highest Continuity Errors
  *************************
  Node T5 (43.44%)
  Node T2 (34.42%)
  Node T6 (27.64%)
  Node T4 (23.33%)
  Node T3 (20.74%)
  
  
  ***************************
  Time-Step Critical Elements
  ***************************
  None
  
  
  ********************************
  Highest Flow Instability Indexes
  ********************************
  All links are stable.
  
  
  *************************
  Routing Time Step Summary
  *************************
  Minimum Time Step           :     4.50 sec
  Average Time Step           :     5.00 sec
  Maximum Time Step           :     5.00 sec
  Percent in Steady State     :     0.00
  Average Iterations per Step :     2.00
  Percent Not Converging      :     0.00
  
  
  ***************************
  Subcatchment Runoff Summary
  ***************************
  
  ------------------------------------------------------------------------------------------------------------------------------
                            Total      Total      Total      Total     Imperv       Perv      Total       Total     Peak  Runoff
                           Precip      Runon       Evap      Infil     Runoff     Runoff     Runoff      Runoff   Runoff   Coeff
  Subcatchment                 mm         mm         mm         mm         mm         mm         mm    10^6 ltr      CMS
  ------------------------------------------------------------------------------------------------------------------------------
  SC01                       3.84       0.00       0.00       0.00       3.76       0.00       3.76        1.24     0.24   0.978
  SC02                       3.84       0.00       0.00       0.00       3.75       0.00       3.75        0.85     0.17   0.977
  SC03                       3.84       0.00       0.00       0.00       3.78       0.00       3.78        0.68     0.14   0.982
  SC04                       3.84       0.00       0.00       0.00       3.66       0.00       3.66        0.25     0.04   0.952
  SC05                       3.84       0.00       0.00       0.00       3.75       0.00       3.75        0.59     0.11   0.976
  SC06                       3.84       0.00       0.00       0.00       3.61       0.00       3.61        1.18     0.20   0.940
  SC07                       3.84       0.00       0.00       0.00       3.66       0.00       3.66        0.17     0.03   0.953
  SC08                       3.84       0.00       0.00       0.00       3.73       0.00       3.73        1.04     0.20   0.970
  SC09                       3.84       0.00       0.00       0.00       3.71       0.00       3.71        0.26     0.05   0.964
  SC010                      3.84       0.00       0.00       0.00       3.73       0.00       3.73        0.44     0.08   0.971
  
  
  ******************
  Node Depth Summary
  ******************
  
  ---------------------------------------------------------------------------------
                                 Average  Maximum  Maximum  Time of Max    Reported
                                   Depth    Depth      HGL   Occurrence   Max Depth
  Node                 Type       Meters   Meters   Meters  days hr:min      Meters
  ---------------------------------------------------------------------------------
  J1                   JUNCTION     0.07     0.12    34.12     0  03:01        0.12
  J3                   JUNCTION     0.07     0.11    18.11     0  07:10        0.11
  CSO7                 JUNCTION     0.09     0.16    34.16     0  03:01        0.16
  J5                   JUNCTION     0.06     0.10    32.10     0  03:01        0.10
  CSO9                 JUNCTION     0.10     0.20    40.20     0  03:01        0.20
  J8                   JUNCTION     0.10     0.18    36.18     0  03:01        0.18
  CSO8                 JUNCTION     0.11     0.28    32.28     0  03:01        0.28
  J10                  JUNCTION     0.08     0.18    29.18     0  03:01        0.18
  J13                  JUNCTION     0.06     0.12    29.12     0  03:01        0.12
  J15                  JUNCTION     0.13     0.23    15.23     0  03:02        0.23
  J16                  JUNCTION     0.06     0.13    30.13     0  03:01        0.13
  CSO10                JUNCTION     0.10     0.24    30.24     0  03:01        0.24
  J12                  JUNCTION     0.12     0.21    26.21     0  03:03        0.21
  J4                   JUNCTION     0.11     0.19    33.19     0  03:03        0.19
  J6                   JUNCTION     0.04     0.06    25.06     0  05:29        0.06
  J2                   JUNCTION     0.00     0.00    25.00     0  00:00        0.00
  J19                  JUNCTION     0.12     0.15     8.15     0  03:42        0.15
  J9                   JUNCTION     0.07     0.11    29.11     0  04:56        0.11
  J14                  JUNCTION     0.09     0.13    20.13     0  07:50        0.13
  J17                  JUNCTION     0.04     0.06    20.06     0  05:13        0.06
  J7                   JUNCTION     0.07     0.14    39.14     0  03:02        0.14
  J11                  JUNCTION     0.09     0.20    31.20     0  03:01        0.20
  J18                  JUNCTION     0.05     0.11    29.11     0  03:02        0.11
  Out_to_WWTP          OUTFALL      0.12     0.15     6.15     0  03:42        0.15
  T5                   STORAGE      3.18     5.00    32.00     0  05:37        5.00
  T4                   STORAGE      1.90     2.85    29.85     0  05:27        2.85
  T6                   STORAGE      3.29     5.00    36.00     0  04:40        5.00
  T3                   STORAGE      1.64     2.61    24.61     0  07:50        2.61
  T2                   STORAGE      1.64     2.38    23.38     0  05:11        2.38
  T1                   STORAGE      1.78     3.13    13.13     0  03:41        3.13
  
  
  *******************
  Node Inflow Summary
  *******************
  
  -------------------------------------------------------------------------------------------------
                                  Maximum  Maximum                  Lateral       Total        Flow
                                  Lateral    Total  Time of Max      Inflow      Inflow     Balance
                                   Inflow   Inflow   Occurrence      Volume      Volume       Error
  Node                 Type           CMS      CMS  days hr:min    10^6 ltr    10^6 ltr     Percent
  -------------------------------------------------------------------------------------------------
  J1                   JUNCTION     0.137    0.137     0  03:01        1.15        1.15       0.082
  J3                   JUNCTION     0.000    0.110     0  07:07           0        1.95       1.392
  CSO7                 JUNCTION     0.043    0.043     0  03:01       0.464       0.464       0.097
  J5                   JUNCTION     0.050    0.090     0  03:01        0.38        0.84       0.216
  CSO9                 JUNCTION     0.055    0.055     0  03:01       0.452       0.452       0.097
  J8                   JUNCTION     0.239    0.291     0  03:01        2.12        2.57       0.242
  CSO8                 JUNCTION     0.208    0.208     0  03:01        1.34        1.34       0.040
  J10                  JUNCTION     0.153    0.355     0  03:01        1.07         2.4       0.223
  J13                  JUNCTION     0.185    0.185     0  03:01        1.32        1.32      -0.181
  J15                  JUNCTION     0.000    0.454     0  03:01           0        4.71       1.300
  J16                  JUNCTION     0.266    0.266     0  03:01        1.79        1.79       0.016
  CSO10                JUNCTION     0.089    0.089     0  03:01       0.578       0.578       0.074
  J12                  JUNCTION     0.000    0.412     0  03:01           0        3.72       0.649
  J4                   JUNCTION     0.000    0.042     0  03:01           0       0.464       0.811
  J6                   JUNCTION     0.000    0.021     0  05:27           0       0.383       0.794
  J2                   JUNCTION     0.000    0.000     0  00:00           0           0       0.000 ltr
  J19                  JUNCTION     0.000    0.214     0  03:41           0        4.02       0.222
  J9                   JUNCTION     0.000    0.075     0  04:40           0        1.35       1.482
  J14                  JUNCTION     0.000    0.089     0  07:50           0        1.57       0.346
  J17                  JUNCTION     0.000    0.023     0  05:11           0       0.419       1.400
  J7                   JUNCTION     0.000    0.055     0  03:01           0       0.452       0.713
  J11                  JUNCTION     0.000    0.208     0  03:01           0        1.34       0.438
  J18                  JUNCTION     0.000    0.089     0  03:01           0       0.577       0.152
  Out_to_WWTP          OUTFALL      0.000    0.214     0  03:42           0        4.01       0.000
  T5                   STORAGE      0.000    0.135     0  03:01           0        1.15      76.793
  T4                   STORAGE      0.000    0.089     0  03:01           0       0.838      30.432
  T6                   STORAGE      0.000    0.287     0  03:01           0        2.56      38.196
  T3                   STORAGE      0.000    0.404     0  03:03           0         3.7      26.175
  T2                   STORAGE      0.000    0.183     0  03:01           0        1.32      52.475
  T1                   STORAGE      0.000    0.441     0  03:02           0        4.65       8.151
  
  
  **********************
  Node Surcharge Summary
  **********************
  
  No nodes were surcharged.
  
  
  *********************
  Node Flooding Summary
  *********************
  
  Flooding refers to all water that overflows a node, whether it ponds or not.
  --------------------------------------------------------------------------
                                                             Total   Maximum
                                 Maximum   Time of Max       Flood    Ponded
                        Hours       Rate    Occurrence      Volume     Depth
  Node                 Flooded       CMS   days hr:min    10^6 ltr    Meters
  --------------------------------------------------------------------------
  T5                      2.20     0.025      0  05:37       0.149     0.000
  T6                      0.25     0.006      0  04:40       0.002     0.000
  
  
  **********************
  Storage Volume Summary
  **********************
  
  --------------------------------------------------------------------------------------------------
                         Average     Avg  Evap Exfil       Maximum     Max    Time of Max    Maximum
                          Volume    Pcnt  Pcnt  Pcnt        Volume    Pcnt     Occurrence    Outflow
  Storage Unit           1000 m3    Full  Loss  Loss       1000 m3    Full    days hr:min        CMS
  --------------------------------------------------------------------------------------------------
  T5                       0.318      64     0     0         0.500     100       0  05:37      0.000
  T4                       0.190      38     0     0         0.285      57       0  05:27      0.021
  T6                       0.395      66     0     0         0.600     100       0  04:40      0.075
  T3                       0.850      33     0     0         1.358      52       0  07:50      0.089
  T2                       0.327      33     0     0         0.476      48       0  05:11      0.023
  T1                       0.249      36     0     0         0.438      63       0  03:41      0.214
  
  
  ***********************
  Outfall Loading Summary
  ***********************
  
  -----------------------------------------------------------
                         Flow       Avg       Max       Total
                         Freq      Flow      Flow      Volume
  Outfall Node           Pcnt       CMS       CMS    10^6 ltr
  -----------------------------------------------------------
  Out_to_WWTP           99.01     0.144     0.214       4.014
  -----------------------------------------------------------
  System                99.01     0.144     0.214       4.014
  
  
  ********************
  Link Flow Summary
  ********************
  
  -----------------------------------------------------------------------------
                                 Maximum  Time of Max   Maximum    Max/    Max/
                                  |Flow|   Occurrence   |Veloc|    Full    Full
  Link                 Type          CMS  days hr:min     m/sec    Flow   Depth
  -----------------------------------------------------------------------------
  C1                   CONDUIT     0.000     0  00:00      0.00    0.00    0.05
  C6                   CONDUIT     0.041     0  03:03      1.20    0.65    0.49
  C2                   CONDUIT     0.021     0  05:29      0.98    0.02    0.14
  C9                   CONDUIT     0.053     0  03:02      0.98    0.18    0.32
  C16                  CONDUIT     0.204     0  03:02      1.35    0.02    0.09
  C3                   CONDUIT     0.089     0  07:50      1.71    0.03    0.12
  C19                  CONDUIT     0.023     0  05:13      0.56    0.01    0.14
  C11                  CONDUIT     0.110     0  07:10      1.42    0.01    0.08
  C20                  CONDUIT     0.263     0  03:01      2.01    0.01    0.09
  C22                  CONDUIT     0.087     0  03:02      1.19    0.04    0.21
  C12                  CONDUIT     0.075     0  04:56      1.09    0.01    0.08
  C17                  CONDUIT     0.349     0  03:01      2.18    0.02    0.10
  C10                  CONDUIT     0.287     0  03:01      1.65    0.03    0.56
  C13                  CONDUIT     0.404     0  03:03      1.31    0.02    0.54
  C18                  CONDUIT     0.183     0  03:01      1.72    0.01    0.52
  C23                  CONDUIT     0.441     0  03:02      1.22    0.05    0.58
  C4                   CONDUIT     0.135     0  03:01      1.97    0.03    0.56
  C7                   CONDUIT     0.089     0  03:01      1.41    0.02    0.55
  C14                  CONDUIT     0.214     0  03:42      1.93    0.01    0.08
  C5                   CONDUIT     0.042     0  03:01      1.22    0.72    0.69
  C8                   CONDUIT     0.055     0  03:01      1.24    0.69    0.55
  C15                  CONDUIT     0.208     0  03:01      2.43    0.66    0.52
  C21                  CONDUIT     0.089     0  03:01      1.57    0.51    0.40
  V4                   ORIFICE     0.021     0  05:27                      0.35
  V5                   ORIFICE     0.000     0  00:00                      0.00
  V1                   ORIFICE     0.214     0  03:41                      1.00
  V6                   ORIFICE     0.075     0  04:40                      0.43
  V3                   ORIFICE     0.089     0  07:50                      0.65
  V2                   ORIFICE     0.023     0  05:11                      0.24
  
  
  ***************************
  Flow Classification Summary
  ***************************
  
  -------------------------------------------------------------------------------------
                      Adjusted    ---------- Fraction of Time in Flow Class ---------- 
                       /Actual         Up    Down  Sub   Sup   Up    Down  Norm  Inlet 
  Conduit               Length    Dry  Dry   Dry   Crit  Crit  Crit  Crit  Ltd   Ctrl  
  -------------------------------------------------------------------------------------
  C1                      1.00   0.32  0.68  0.00  0.00  0.00  0.00  0.00  0.00  0.00
  C6                      1.00   0.00  0.00  0.00  0.01  0.99  0.00  0.00  0.00  0.00
  C2                      1.00   0.32  0.00  0.00  0.00  0.68  0.00  0.00  0.66  0.00
  C9                      1.00   0.00  0.00  0.00  1.00  0.00  0.00  0.00  1.00  0.00
  C16                     1.00   0.00  0.00  0.00  0.61  0.39  0.00  0.00  0.51  0.00
  C3                      1.00   0.32  0.00  0.00  0.00  0.68  0.00  0.00  0.00  0.00
  C19                     1.00   0.00  0.32  0.00  0.68  0.00  0.00  0.00  0.68  0.00
  C11                     1.00   0.00  0.32  0.00  0.11  0.57  0.00  0.00  0.68  0.00
  C20                     1.00   0.00  0.00  0.00  0.53  0.47  0.00  0.00  0.98  0.00
  C22                     1.00   0.00  0.00  0.00  0.73  0.27  0.00  0.00  1.00  0.00
  C12                     1.00   0.00  0.32  0.00  0.16  0.52  0.00  0.00  0.68  0.00
  C17                     1.00   0.00  0.00  0.00  0.40  0.60  0.00  0.00  0.91  0.00
  C10                     1.00   0.00  0.00  0.00  0.97  0.03  0.00  0.00  0.98  0.00
  C13                     1.00   0.00  0.00  0.00  0.88  0.12  0.00  0.00  0.91  0.00
  C18                     1.00   0.00  0.00  0.00  0.95  0.05  0.00  0.00  0.97  0.00
  C23                     1.00   0.00  0.00  0.00  0.80  0.20  0.00  0.00  0.94  0.00
  C4                      1.00   0.00  0.00  0.00  0.97  0.03  0.00  0.00  0.98  0.00
  C7                      1.00   0.00  0.00  0.00  0.95  0.05  0.00  0.00  0.97  0.00
  C14                     1.00   0.00  0.00  0.00  0.00  0.99  0.00  0.00  0.54  0.00
  C5                      1.00   0.00  0.00  0.00  0.88  0.12  0.00  0.00  0.98  0.00
  C8                      1.00   0.00  0.00  0.00  0.00  1.00  0.00  0.00  0.00  0.00
  C15                     1.00   0.00  0.00  0.00  0.00  1.00  0.00  0.00  0.00  0.00
  C21                     1.00   0.00  0.00  0.00  0.00  1.00  0.00  0.00  0.00  0.00
  
  
  *************************
  Conduit Surcharge Summary
  *************************
  
  ----------------------------------------------------------------------------
                                                           Hours        Hours 
                         --------- Hours Full --------   Above Full   Capacity
  Conduit                Both Ends  Upstream  Dnstream   Normal Flow   Limited
  ----------------------------------------------------------------------------
  C10                         0.01      0.01      5.66      0.01         0.01
  C13                         0.01      0.01      4.41      0.01         0.01
  C18                         0.01      0.01      4.68      0.01         0.01
  C23                         0.01      0.01      5.11      0.01         0.01
  C4                          0.01      0.01      5.88      0.01         0.01
  C7                          0.01      0.01      5.53      0.01         0.01
  

  Analysis begun on:  Fri Sep  3 20:07:33 2021
  Analysis ended on:  Fri Sep  3 20:07:33 2021
  Total elapsed time: < 1 sec