
  EPA STORM WATER MANAGEMENT MODEL - VERSION 5.1 (Build 5.3.0.dev0)
  --------------------------------------------------------------

  WARNING 09: time series interval greater than recording interval for Rain Gage RG1
  WARNING 09: time series interval greater than recording interval for Rain Gage RG2
  WARNING 09: time series interval greater than recording interval for Rain Gage RG3
  WARNING 09: time series interval greater than recording interval for Rain Gage RG4
  
  *********************************************************
  NOTE: The summary statistics displayed in this report are
  based on results found at every computational time step,  
  not just on results from each reporting time step.
  *********************************************************
  
  ****************
  Analysis Options
  ****************
  Flow Units ............... CMS
  Process Models:
    Rainfall/Runoff ........ YES
    RDII ................... NO
    Snowmelt ............... NO
    Groundwater ............ NO
    Flow Routing ........... YES
    Ponding Allowed ........ YES
    Water Quality .......... NO
  Infiltration Method ...... HORTON
  Flow Routing Method ...... DYNWAVE
  Surcharge Method ......... EXTRAN
  Starting Date ............ 08/28/2015 00:00:00
  Ending Date .............. 08/28/2015 23:50:00
  Antecedent Dry Days ...... 0.0
  Report Time Step ......... 00:01:00
  Wet Time Step ............ 00:01:00
  Dry Time Step ............ 00:01:00
  Routing Time Step ........ 5.00 sec
  Variable Time Step ....... YES
  Maximum Trials ........... 8
  Number of Threads ........ 1
  Head Tolerance ........... 0.001500 m
  
  
  **************************        Volume         Depth
  Runoff Quantity Continuity     hectare-m            mm
  **************************     ---------       -------
  Total Precipitation ......         3.960        21.978
  Evaporation Loss .........         0.000         0.000
  Infiltration Loss ........         0.000         0.000
  Surface Runoff ...........         3.860        21.419
  Final Storage ............         0.104         0.577
  Continuity Error (%) .....        -0.085
  
  
  **************************        Volume        Volume
  Flow Routing Continuity        hectare-m      10^6 ltr
  **************************     ---------     ---------
  Dry Weather Inflow .......         0.759         7.586
  Wet Weather Inflow .......         3.859        38.589
  Groundwater Inflow .......         0.000         0.000
  RDII Inflow ..............         0.000         0.000
  External Inflow ..........         0.000         0.000
  External Outflow .........         1.721        17.209
  Flooding Loss ............         1.714        17.137
  Evaporation Loss .........         0.000         0.000
  Exfiltration Loss ........         0.000         0.000
  Initial Stored Volume ....         0.000         0.000
  Final Stored Volume ......         0.873         8.734
  Continuity Error (%) .....         6.701
  
  
  *************************
  Highest Continuity Errors
  *************************
  Node T2 (16.36%)
  Node T5 (11.93%)
  Node T4 (11.27%)
  Node T3 (8.53%)
  Node T6 (7.76%)
  
  
  ***************************
  Time-Step Critical Elements
  ***************************
  None
  
  
  ********************************
  Highest Flow Instability Indexes
  ********************************
  Link C15 (2)
  Link C20 (1)
  
  
  *************************
  Routing Time Step Summary
  *************************
  Minimum Time Step           :     3.50 sec
  Average Time Step           :     5.00 sec
  Maximum Time Step           :     5.00 sec
  Percent in Steady State     :     0.00
  Average Iterations per Step :     2.01
  Percent Not Converging      :     0.02
  
  
  ***************************
  Subcatchment Runoff Summary
  ***************************
  
  ------------------------------------------------------------------------------------------------------------------------------
                            Total      Total      Total      Total     Imperv       Perv      Total       Total     Peak  Runoff
                           Precip      Runon       Evap      Infil     Runoff     Runoff     Runoff      Runoff   Runoff   Coeff
  Subcatchment                 mm         mm         mm         mm         mm         mm         mm    10^6 ltr      CMS
  ------------------------------------------------------------------------------------------------------------------------------
  SC01                      20.19       0.00       0.00       0.00      19.78       0.00      19.78        6.53     0.48   0.980
  SC02                      21.88       0.00       0.00       0.00      21.46       0.00      21.46        4.88     0.33   0.981
  SC03                      23.52       0.00       0.00       0.00      23.35       0.00      23.35        4.20     0.30   0.993
  SC04                      21.88       0.00       0.00       0.00      20.92       0.00      20.92        1.44     0.08   0.956
  SC05                      20.19       0.00       0.00       0.00      19.74       0.00      19.74        3.08     0.21   0.978
  SC06                      23.00       0.00       0.00       0.00      21.98       0.00      21.98        7.15     0.31   0.956
  SC07                      21.88       0.00       0.00       0.00      20.92       0.00      20.92        0.99     0.05   0.956
  SC08                      23.52       0.00       0.00       0.00      23.09       0.00      23.09        6.46     0.38   0.982
  SC09                      23.00       0.00       0.00       0.00      22.37       0.00      22.37        1.54     0.08   0.973
  SC010                     20.19       0.00       0.00       0.00      19.62       0.00      19.62        2.31     0.15   0.972
  
  
  ******************
  Node Depth Summary
  ******************
  
  ---------------------------------------------------------------------------------
                                 Average  Maximum  Maximum  Time of Max    Reported
                                   Depth    Depth      HGL   Occurrence   Max Depth
  Node                 Type       Meters   Meters   Meters  days hr:min      Meters
  ---------------------------------------------------------------------------------
  J1                   JUNCTION     0.07     0.15    34.15     0  20:22        0.15
  J3                   JUNCTION     0.09     0.12    18.12     0  20:01        0.12
  CSO7                 JUNCTION     0.09     0.19    34.19     0  22:36        0.19
  J5                   JUNCTION     0.06     0.12    32.12     0  22:38        0.12
  CSO9                 JUNCTION     0.11     0.30    40.30     0  04:12        0.30
  J8                   JUNCTION     0.11     0.20    36.20     0  04:17        0.20
  CSO8                 JUNCTION     0.15     1.78    33.78     0  04:06        0.72
  J10                  JUNCTION     0.11     0.23    29.23     0  04:08        0.23
  J13                  JUNCTION     0.07     0.15    29.15     0  22:37        0.15
  J15                  JUNCTION     0.16     0.28    15.28     0  20:28        0.28
  J16                  JUNCTION     0.07     0.16    30.16     0  20:22        0.16
  CSO10                JUNCTION     0.12     0.33    30.33     0  20:22        0.33
  J12                  JUNCTION     0.51     1.02    27.02     0  22:39        1.02
  J4                   JUNCTION     0.11     0.21    33.21     0  22:39        0.21
  J6                   JUNCTION     0.05     0.07    25.07     0  19:52        0.07
  J2                   JUNCTION     0.00     0.00    25.00     0  00:00        0.00
  J19                  JUNCTION     0.14     0.17     8.17     0  18:36        0.17
  J9                   JUNCTION     0.09     0.11    29.11     0  11:20        0.11
  J14                  JUNCTION     0.12     0.15    20.15     0  17:46        0.15
  J17                  JUNCTION     0.06     0.08    20.08     0  19:03        0.08
  J7                   JUNCTION     0.09     0.17    39.17     0  04:17        0.17
  J11                  JUNCTION     0.12     0.25    31.25     0  04:08        0.25
  J18                  JUNCTION     0.06     0.13    29.13     0  20:27        0.13
  Out_to_WWTP          OUTFALL      0.14     0.17     6.17     0  11:19        0.17
  T5                   STORAGE      3.96     5.00    32.00     0  08:07        5.00
  T4                   STORAGE      3.14     5.00    32.00     0  19:07        5.00
  T6                   STORAGE      4.08     5.00    36.00     0  07:23        5.00
  T3                   STORAGE      3.56     5.00    27.00     0  17:45        5.00
  T2                   STORAGE      3.18     5.00    26.00     0  18:10        5.00
  T1                   STORAGE      3.26     5.00    15.00     0  11:21        5.00
  
  
  *******************
  Node Inflow Summary
  *******************
  
  -------------------------------------------------------------------------------------------------
                                  Maximum  Maximum                  Lateral       Total        Flow
                                  Lateral    Total  Time of Max      Inflow      Inflow     Balance
                                   Inflow   Inflow   Occurrence      Volume      Volume       Error
  Node                 Type           CMS      CMS  days hr:min    10^6 ltr    10^6 ltr     Percent
  -------------------------------------------------------------------------------------------------
  J1                   JUNCTION     0.228    0.228     0  20:21        4.17        4.17       0.072
  J3                   JUNCTION     0.000    0.152     0  23:48           0        9.52       0.348
  CSO7                 JUNCTION     0.056    0.056     0  22:36        1.56        1.56       0.046
  J5                   JUNCTION     0.079    0.122     0  22:36        1.69        3.24       0.154
  CSO9                 JUNCTION     0.087    0.087     0  04:11        1.93        1.93       0.039
  J8                   JUNCTION     0.324    0.386     0  20:41        8.99        10.9       0.159
  CSO8                 JUNCTION     0.378    0.378     0  04:06        6.91        6.91       0.014
  J10                  JUNCTION     0.303    0.585     0  04:06        4.95        11.9       0.061
  J13                  JUNCTION     0.335    0.335     0  22:36        5.79        5.79       0.030
  J15                  JUNCTION     0.000    0.742     0  20:22           0        21.6       0.444
  J16                  JUNCTION     0.488    0.488     0  20:21        7.61        7.61       0.034
  CSO10                JUNCTION     0.148    0.148     0  20:21        2.58        2.58       0.049
  J12                  JUNCTION     0.000    0.555     0  04:08           0          17       5.046
  J4                   JUNCTION     0.000    0.053     0  22:36           0        1.56       0.325
  J6                   JUNCTION     0.000    0.028     0  19:07           0        1.67       0.237
  J2                   JUNCTION     0.000    0.000     0  00:00           0           0       0.000 ltr
  J19                  JUNCTION     0.000    0.271     0  11:21           0        17.2       0.074
  J9                   JUNCTION     0.000    0.075     0  07:23           0        5.16       0.389
  J14                  JUNCTION     0.000    0.124     0  17:45           0        7.85       0.087
  J17                  JUNCTION     0.000    0.033     0  18:10           0        1.99       0.356
  J7                   JUNCTION     0.000    0.079     0  04:12           0        1.92       0.273
  J11                  JUNCTION     0.000    0.373     0  04:06           0        6.91       0.188
  J18                  JUNCTION     0.000    0.140     0  20:22           0        2.57       0.184
  Out_to_WWTP          OUTFALL      0.000    0.271     0  18:36           0        17.2       0.000
  T5                   STORAGE      0.000    0.207     0  20:22           0        4.17      13.544
  T4                   STORAGE      0.000    0.118     0  22:38           0        3.24      12.696
  T6                   STORAGE      0.000    0.371     0  04:17           0        10.9       8.409
  T3                   STORAGE      0.000    0.640     0  22:27           0        16.2       9.324
  T2                   STORAGE      0.000    0.308     0  22:37           0        5.79      19.564
  T1                   STORAGE      0.000    0.695     0  20:28           0        21.5       4.020
  
  
  **********************
  Node Surcharge Summary
  **********************
  
  Surcharging occurs when water rises above the top of the highest conduit.
  ---------------------------------------------------------------------
                                               Max. Height   Min. Depth
                                   Hours       Above Crown    Below Rim
  Node                 Type      Surcharged         Meters       Meters
  ---------------------------------------------------------------------
  CSO8                 JUNCTION        0.05          1.327        0.220
  
  
  *********************
  Node Flooding Summary
  *********************
  
  Flooding refers to all water that overflows a node, whether it ponds or not.
  --------------------------------------------------------------------------
                                                             Total   Maximum
                                 Maximum   Time of Max       Flood    Ponded
                        Hours       Rate    Occurrence      Volume     Depth
  Node                 Flooded       CMS   days hr:min    10^6 ltr    Meters
  --------------------------------------------------------------------------
  T5                     15.71     0.207      0  20:22       3.173     0.000
  T4                      4.71     0.090      0  22:38       0.700     0.000
  T6                     10.36     0.294      0  20:43       4.284     0.000
  T3                      5.89     0.517      0  22:27       4.336     0.000
  T2                      5.66     0.274      0  22:37       1.853     0.000
  T1                      6.10     0.424      0  20:28       2.790     0.000
  
  
  **********************
  Storage Volume Summary
  **********************
  
  --------------------------------------------------------------------------------------------------
                         Average     Avg  Evap Exfil       Maximum     Max    Time of Max    Maximum
                          Volume    Pcnt  Pcnt  Pcnt        Volume    Pcnt     Occurrence    Outflow
  Storage Unit           1000 m3    Full  Loss  Loss       1000 m3    Full    days hr:min        CMS
  --------------------------------------------------------------------------------------------------
  T5                       0.396      79     0     0         0.500     100       0  08:07      0.000
  T4                       0.314      63     0     0         0.500     100       0  19:07      0.028
  T6                       0.490      82     0     0         0.600     100       0  07:23      0.075
  T3                       1.852      71     0     0         2.600     100       0  17:45      0.124
  T2                       0.636      64     0     0         1.000     100       0  18:10      0.033
  T1                       0.457      65     0     0         0.700     100       0  11:21      0.271
  
  
  ***********************
  Outfall Loading Summary
  ***********************
  
  -----------------------------------------------------------
                         Flow       Avg       Max       Total
                         Freq      Flow      Flow      Volume
  Outfall Node           Pcnt       CMS       CMS    10^6 ltr
  -----------------------------------------------------------
  Out_to_WWTP           99.44     0.202     0.271      17.209
  -----------------------------------------------------------
  System                99.44     0.202     0.271      17.209
  
  
  ********************
  Link Flow Summary
  ********************
  
  -----------------------------------------------------------------------------
                                 Maximum  Time of Max   Maximum    Max/    Max/
                                  |Flow|   Occurrence   |Veloc|    Full    Full
  Link                 Type          CMS  days hr:min     m/sec    Flow   Depth
  -----------------------------------------------------------------------------
  C1                   CONDUIT     0.000     0  00:00      0.00    0.00    0.06
  C6                   CONDUIT     0.048     0  22:39      1.22    0.77    0.55
  C2                   CONDUIT     0.028     0  19:52      0.93    0.03    0.16
  C9                   CONDUIT     0.074     0  04:17      1.12    0.25    0.37
  C16                  CONDUIT     0.326     0  04:08      1.57    0.03    0.12
  C3                   CONDUIT     0.124     0  17:48      1.91    0.05    0.14
  C19                  CONDUIT     0.033     0  19:03      0.63    0.01    0.18
  C11                  CONDUIT     0.152     0  20:01      1.55    0.01    0.10
  C20                  CONDUIT     0.441     0  20:22      2.52    0.01    0.11
  C22                  CONDUIT     0.131     0  20:28      1.35    0.06    0.26
  C12                  CONDUIT     0.075     0  11:20      1.10    0.01    0.28
  C17                  CONDUIT     0.555     0  04:08      2.71    0.03    0.31
  C10                  CONDUIT     0.371     0  04:17      0.93    0.04    0.57
  C13                  CONDUIT     0.640     0  22:27      1.45    0.04    0.75
  C18                  CONDUIT     0.308     0  22:37      1.01    0.01    0.54
  C23                  CONDUIT     0.695     0  20:28      1.21    0.08    0.59
  C4                   CONDUIT     0.207     0  20:22      1.13    0.05    0.58
  C7                   CONDUIT     0.118     0  22:38      0.80    0.03    0.56
  C14                  CONDUIT     0.271     0  18:36      2.08    0.02    0.09
  C5                   CONDUIT     0.053     0  22:36      1.26    0.91    0.78
  C8                   CONDUIT     0.079     0  04:12      1.35    0.99    0.73
  C15                  CONDUIT     0.373     0  04:06      2.85    1.18    0.77
  C21                  CONDUIT     0.140     0  20:22      1.78    0.80    0.51
  V4                   ORIFICE     0.028     0  19:07                      0.35
  V5                   ORIFICE     0.000     0  00:00                      0.00
  V1                   ORIFICE     0.271     0  11:21                      1.00
  V6                   ORIFICE     0.075     0  07:23                      0.43
  V3                   ORIFICE     0.124     0  17:45                      0.65
  V2                   ORIFICE     0.033     0  18:10                      0.24
  
  
  ***************************
  Flow Classification Summary
  ***************************
  
  -------------------------------------------------------------------------------------
                      Adjusted    ---------- Fraction of Time in Flow Class ---------- 
                       /Actual         Up    Down  Sub   Sup   Up    Down  Norm  Inlet 
  Conduit               Length    Dry  Dry   Dry   Crit  Crit  Crit  Crit  Ltd   Ctrl  
  -------------------------------------------------------------------------------------
  C1                      1.00   0.19  0.81  0.00  0.00  0.00  0.00  0.00  0.00  0.00
  C6                      1.00   0.00  0.00  0.00  0.01  0.99  0.00  0.00  0.00  0.00
  C2                      1.00   0.19  0.00  0.00  0.00  0.81  0.00  0.00  0.81  0.00
  C9                      1.00   0.00  0.00  0.00  1.00  0.00  0.00  0.00  1.00  0.00
  C16                     1.00   0.00  0.00  0.00  0.15  0.84  0.00  0.00  0.04  0.00
  C3                      1.00   0.19  0.00  0.00  0.00  0.81  0.00  0.00  0.00  0.00
  C19                     1.00   0.00  0.19  0.00  0.81  0.00  0.00  0.00  0.81  0.00
  C11                     1.00   0.00  0.19  0.00  0.09  0.72  0.00  0.00  0.81  0.00
  C20                     1.00   0.00  0.00  0.00  0.40  0.60  0.00  0.00  0.98  0.00
  C22                     1.00   0.00  0.00  0.00  0.84  0.16  0.00  0.00  1.00  0.00
  C12                     1.00   0.00  0.19  0.00  0.64  0.17  0.00  0.00  0.81  0.00
  C17                     1.00   0.00  0.00  0.00  0.65  0.35  0.00  0.00  0.95  0.00
  C10                     1.00   0.00  0.00  0.00  0.98  0.02  0.00  0.00  0.98  0.00
  C13                     1.00   0.00  0.00  0.00  0.96  0.04  0.00  0.00  0.42  0.00
  C18                     1.00   0.00  0.00  0.00  0.97  0.03  0.00  0.00  0.98  0.00
  C23                     1.00   0.00  0.00  0.00  0.86  0.14  0.00  0.00  0.97  0.00
  C4                      1.00   0.00  0.00  0.00  0.98  0.02  0.00  0.00  0.99  0.00
  C7                      1.00   0.00  0.00  0.00  0.97  0.03  0.00  0.00  0.98  0.00
  C14                     1.00   0.00  0.00  0.00  0.00  1.00  0.00  0.00  0.30  0.00
  C5                      1.00   0.00  0.00  0.00  0.87  0.13  0.00  0.00  0.98  0.00
  C8                      1.00   0.00  0.00  0.00  0.02  0.98  0.00  0.00  0.00  0.00
  C15                     1.00   0.00  0.00  0.00  0.00  1.00  0.00  0.00  0.00  0.00
  C21                     1.00   0.00  0.00  0.00  0.00  1.00  0.00  0.00  0.00  0.00
  
  
  *************************
  Conduit Surcharge Summary
  *************************
  
  ----------------------------------------------------------------------------
                                                           Hours        Hours 
                         --------- Hours Full --------   Above Full   Capacity
  Conduit                Both Ends  Upstream  Dnstream   Normal Flow   Limited
  ----------------------------------------------------------------------------
  C10                         0.01      0.01     19.86      0.01         0.01
  C13                         0.01      0.01     19.58      0.01         0.01
  C18                         0.01      0.01     17.28      0.01         0.01
  C23                         0.01      0.01     19.46      0.01         0.01
  C4                          0.01      0.01     20.06      0.01         0.01
  C7                          0.01      0.01     19.59      0.01         0.01
  C15                         0.01      0.05      0.01      0.10         0.01
  

  Analysis begun on:  Mon Sep 20 12:37:02 2021
  Analysis ended on:  Mon Sep 20 12:37:02 2021
  Total elapsed time: < 1 sec