
  EPA STORM WATER MANAGEMENT MODEL - VERSION 5.1 (Build 5.3.0.dev0)
  --------------------------------------------------------------

  WARNING 09: time series interval greater than recording interval for Rain Gage RG1
  WARNING 09: time series interval greater than recording interval for Rain Gage RG2
  WARNING 09: time series interval greater than recording interval for Rain Gage RG3
  WARNING 09: time series interval greater than recording interval for Rain Gage RG4
  
  *********************************************************
  NOTE: The summary statistics displayed in this report are
  based on results found at every computational time step,  
  not just on results from each reporting time step.
  *********************************************************
  
  ****************
  Analysis Options
  ****************
  Flow Units ............... CMS
  Process Models:
    Rainfall/Runoff ........ YES
    RDII ................... NO
    Snowmelt ............... NO
    Groundwater ............ NO
    Flow Routing ........... YES
    Ponding Allowed ........ YES
    Water Quality .......... NO
  Infiltration Method ...... HORTON
  Flow Routing Method ...... DYNWAVE
  Surcharge Method ......... EXTRAN
  Starting Date ............ 08/28/2015 00:00:00
  Ending Date .............. 08/28/2015 23:40:00
  Antecedent Dry Days ...... 0.0
  Report Time Step ......... 00:01:00
  Wet Time Step ............ 00:01:00
  Dry Time Step ............ 00:01:00
  Routing Time Step ........ 5.00 sec
  Variable Time Step ....... YES
  Maximum Trials ........... 8
  Number of Threads ........ 1
  Head Tolerance ........... 0.001500 m
  
  
  **************************        Volume         Depth
  Runoff Quantity Continuity     hectare-m            mm
  **************************     ---------       -------
  Total Precipitation ......         2.781        15.435
  Evaporation Loss .........         0.000         0.000
  Infiltration Loss ........         0.000         0.000
  Surface Runoff ...........         2.745        15.232
  Final Storage ............         0.043         0.238
  Continuity Error (%) .....        -0.224
  
  
  **************************        Volume        Volume
  Flow Routing Continuity        hectare-m      10^6 ltr
  **************************     ---------     ---------
  Dry Weather Inflow .......         0.758         7.576
  Wet Weather Inflow .......         2.745        27.446
  Groundwater Inflow .......         0.000         0.000
  RDII Inflow ..............         0.000         0.000
  External Inflow ..........         0.000         0.000
  External Outflow .........         1.210        12.098
  Flooding Loss ............         1.186        11.863
  Evaporation Loss .........         0.000         0.000
  Exfiltration Loss ........         0.000         0.000
  Initial Stored Volume ....         0.000         0.000
  Final Stored Volume ......         0.835         8.351
  Continuity Error (%) .....         7.737
  
  
  *************************
  Highest Continuity Errors
  *************************
  Node T2 (19.77%)
  Node T5 (15.18%)
  Node T3 (13.66%)
  Node T4 (13.31%)
  Node J12 (7.50%)
  
  
  ***************************
  Time-Step Critical Elements
  ***************************
  None
  
  
  ********************************
  Highest Flow Instability Indexes
  ********************************
  All links are stable.
  
  
  *************************
  Routing Time Step Summary
  *************************
  Minimum Time Step           :     4.69 sec
  Average Time Step           :     5.00 sec
  Maximum Time Step           :     5.00 sec
  Percent in Steady State     :     0.00
  Average Iterations per Step :     2.13
  Percent Not Converging      :     0.45
  
  
  ***************************
  Subcatchment Runoff Summary
  ***************************
  
  ------------------------------------------------------------------------------------------------------------------------------
                            Total      Total      Total      Total     Imperv       Perv      Total       Total     Peak  Runoff
                           Precip      Runon       Evap      Infil     Runoff     Runoff     Runoff      Runoff   Runoff   Coeff
  Subcatchment                 mm         mm         mm         mm         mm         mm         mm    10^6 ltr      CMS
  ------------------------------------------------------------------------------------------------------------------------------
  SC01                      12.37       0.00       0.00       0.00      12.20       0.00      12.20        4.03     1.10   0.986
  SC02                      16.66       0.00       0.00       0.00      16.49       0.00      16.49        3.75     0.91   0.990
  SC03                      14.91       0.00       0.00       0.00      14.90       0.00      14.90        2.68     1.84   0.999
  SC04                      16.66       0.00       0.00       0.00      16.14       0.00      16.14        1.11     0.18   0.969
  SC05                      12.37       0.00       0.00       0.00      12.17       0.00      12.17        1.90     0.50   0.984
  SC06                      19.67       0.00       0.00       0.00      19.36       0.00      19.36        6.30     2.33   0.984
  SC07                      16.66       0.00       0.00       0.00      16.15       0.00      16.15        0.77     0.12   0.969
  SC08                      14.91       0.00       0.00       0.00      14.78       0.00      14.78        4.14     1.94   0.991
  SC09                      19.67       0.00       0.00       0.00      19.53       0.00      19.53        1.35     0.72   0.993
  SC010                     12.37       0.00       0.00       0.00      12.10       0.00      12.10        1.42     0.34   0.978
  
  
  ******************
  Node Depth Summary
  ******************
  
  ---------------------------------------------------------------------------------
                                 Average  Maximum  Maximum  Time of Max    Reported
                                   Depth    Depth      HGL   Occurrence   Max Depth
  Node                 Type       Meters   Meters   Meters  days hr:min      Meters
  ---------------------------------------------------------------------------------
  J1                   JUNCTION     0.06     0.23    34.23     0  21:36        0.23
  J3                   JUNCTION     0.09     0.11    18.11     0  22:34        0.11
  CSO7                 JUNCTION     0.10     1.20    35.20     0  18:41        1.20
  J5                   JUNCTION     0.05     0.16    32.16     0  21:42        0.16
  CSO9                 JUNCTION     0.15     2.00    42.00     0  19:00        2.00
  J8                   JUNCTION     0.09     0.49    36.49     0  19:07        0.49
  CSO8                 JUNCTION     0.12     2.00    34.00     0  19:00        2.00
  J10                  JUNCTION     0.07     0.43    29.43     0  19:11        0.43
  J13                  JUNCTION     0.05     0.24    29.24     0  21:41        0.24
  J15                  JUNCTION     0.13     0.37    15.37     0  21:38        0.37
  J16                  JUNCTION     0.05     0.24    30.24     0  21:36        0.24
  CSO10                JUNCTION     0.10     1.00    31.00     0  21:30        1.00
  J12                  JUNCTION     0.26     1.09    27.09     0  19:28        1.09
  J4                   JUNCTION     0.11     1.53    34.53     0  21:39        0.74
  J6                   JUNCTION     0.05     0.07    25.07     0  20:40        0.07
  J2                   JUNCTION     0.06     0.08    25.08     0  22:33        0.08
  J19                  JUNCTION     0.12     0.17     8.17     0  21:38        0.17
  J9                   JUNCTION     0.08     0.11    29.11     0  20:53        0.11
  J14                  JUNCTION     0.09     0.13    20.13     0  15:10        0.13
  J17                  JUNCTION     0.05     0.08    20.08     0  22:19        0.08
  J7                   JUNCTION     0.07     0.23    39.23     0  19:26        0.23
  J11                  JUNCTION     0.07     0.30    31.30     0  19:27        0.30
  J18                  JUNCTION     0.04     0.16    29.16     0  21:42        0.16
  Out_to_WWTP          OUTFALL      0.12     0.17     6.17     0  22:46        0.17
  T5                   STORAGE      1.68     5.00    32.00     0  21:50        5.00
  T4                   STORAGE      2.43     5.00    32.00     0  19:53        5.00
  T6                   STORAGE      3.58     5.00    36.00     0  14:34        5.00
  T3                   STORAGE      2.09     5.00    27.00     0  19:22        5.00
  T2                   STORAGE      2.31     5.00    26.00     0  19:47        5.00
  T1                   STORAGE      1.72     5.00    15.00     0  21:37        5.00
  
  
  *******************
  Node Inflow Summary
  *******************
  
  -------------------------------------------------------------------------------------------------
                                  Maximum  Maximum                  Lateral       Total        Flow
                                  Lateral    Total  Time of Max      Inflow      Inflow     Balance
                                   Inflow   Inflow   Occurrence      Volume      Volume       Error
  Node                 Type           CMS      CMS  days hr:min    10^6 ltr    10^6 ltr     Percent
  -------------------------------------------------------------------------------------------------
  J1                   JUNCTION     0.507    0.507     0  21:36        2.99        2.99      -0.033
  J3                   JUNCTION     0.000    0.127     0  22:22           0        6.96       0.411
  CSO7                 JUNCTION     0.129    0.129     0  21:41        1.33        1.33       0.028
  J5                   JUNCTION     0.182    0.254     0  21:41        1.36        2.67       0.052
  CSO9                 JUNCTION     0.721    0.721     0  19:06        1.73        1.73      -0.019
  J8                   JUNCTION     2.357    2.475     0  19:06        8.13        9.51       0.010
  CSO8                 JUNCTION     1.939    1.939     0  19:11        4.59        4.59      -0.024
  J10                  JUNCTION     1.854    2.336     0  19:11        3.43        7.19      -0.194
  J13                  JUNCTION     0.921    0.921     0  21:41        4.66        4.66      -0.103
  J15                  JUNCTION     0.000    1.375     0  21:36           0        15.1       0.479
  J16                  JUNCTION     1.105    1.105     0  21:36         5.1         5.1      -0.047
  CSO10                JUNCTION     0.338    0.338     0  21:36        1.69        1.69      -0.042
  J12                  JUNCTION     0.000    2.063     0  19:12           0        10.9       8.111
  J4                   JUNCTION     0.000    0.085     0  21:37           0        1.31       0.116
  J6                   JUNCTION     0.000    0.028     0  19:53           0        1.24       0.340
  J2                   JUNCTION     0.000    0.039     0  21:50           0        1.78       0.311
  J19                  JUNCTION     0.000    0.271     0  21:37           0        12.1       0.099
  J9                   JUNCTION     0.000    0.075     0  15:20           0        3.71       0.445
  J14                  JUNCTION     0.000    0.088     0  15:10           0        3.96       0.109
  J17                  JUNCTION     0.000    0.033     0  19:47           0         1.4       0.458
  J7                   JUNCTION     0.000    0.127     0  19:26           0        1.38       0.098
  J11                  JUNCTION     0.000    0.487     0  19:27           0        3.77       0.206
  J18                  JUNCTION     0.000    0.202     0  21:42           0        1.62       0.103
  Out_to_WWTP          OUTFALL      0.000    0.271     0  21:38           0        12.1       0.000
  T5                   STORAGE      0.000    0.471     0  21:36           0        2.99      17.896
  T4                   STORAGE      0.000    0.239     0  21:42           0        2.67      15.358
  T6                   STORAGE      0.000    2.284     0  19:07           0        9.51       7.628
  T3                   STORAGE      0.000    1.596     0  19:11           0        10.1      15.817
  T2                   STORAGE      0.000    0.845     0  21:41           0        4.67      24.634
  T1                   STORAGE      0.000    1.231     0  21:38           0          15       5.068
  
  
  **********************
  Node Surcharge Summary
  **********************
  
  Surcharging occurs when water rises above the top of the highest conduit.
  ---------------------------------------------------------------------
                                               Max. Height   Min. Depth
                                   Hours       Above Crown    Below Rim
  Node                 Type      Surcharged         Meters       Meters
  ---------------------------------------------------------------------
  CSO7                 JUNCTION        0.93          0.945        0.000
  CSO9                 JUNCTION        1.11          1.682        0.000
  CSO8                 JUNCTION        0.65          1.547        0.000
  CSO10                JUNCTION        0.51          0.560        0.000
  J4                   JUNCTION        0.53          1.228        0.472
  
  
  *********************
  Node Flooding Summary
  *********************
  
  Flooding refers to all water that overflows a node, whether it ponds or not.
  --------------------------------------------------------------------------
                                                             Total   Maximum
                                 Maximum   Time of Max       Flood    Ponded
                        Hours       Rate    Occurrence      Volume     Depth
  Node                 Flooded       CMS   days hr:min    10^6 ltr    Meters
  --------------------------------------------------------------------------
  CSO7                    0.31     0.058      0  21:41       0.024     0.000
  CSO9                    0.66     0.595      0  19:06       0.352     0.000
  CSO8                    0.43     1.452      0  19:11       0.821     0.000
  CSO10                   0.34     0.135      0  21:36       0.071     0.000
  T5                      0.72     0.400      0  21:52       0.304     0.000
  T4                      2.68     0.211      0  21:42       0.584     0.000
  T6                      3.80     2.208      0  19:07       4.645     0.000
  T3                      3.39     1.294      0  19:31       2.147     0.000
  T2                      2.47     0.812      0  21:41       1.373     0.000
  T1                      1.00     0.961      0  21:38       1.543     0.000
  
  
  **********************
  Storage Volume Summary
  **********************
  
  --------------------------------------------------------------------------------------------------
                         Average     Avg  Evap Exfil       Maximum     Max    Time of Max    Maximum
                          Volume    Pcnt  Pcnt  Pcnt        Volume    Pcnt     Occurrence    Outflow
  Storage Unit           1000 m3    Full  Loss  Loss       1000 m3    Full    days hr:min        CMS
  --------------------------------------------------------------------------------------------------
  T5                       0.168      34     0     0         0.500     100       0  21:50      0.039
  T4                       0.243      49     0     0         0.500     100       0  19:53      0.028
  T6                       0.430      72     0     0         0.600     100       0  14:34      0.075
  T3                       1.085      42     0     0         2.600     100       0  19:22      0.183
  T2                       0.461      46     0     0         1.000     100       0  19:47      0.033
  T1                       0.240      34     0     0         0.700     100       0  21:37      0.271
  
  
  ***********************
  Outfall Loading Summary
  ***********************
  
  -----------------------------------------------------------
                         Flow       Avg       Max       Total
                         Freq      Flow      Flow      Volume
  Outfall Node           Pcnt       CMS       CMS    10^6 ltr
  -----------------------------------------------------------
  Out_to_WWTP           99.43     0.143     0.271      12.098
  -----------------------------------------------------------
  System                99.43     0.143     0.271      12.098
  
  
  ********************
  Link Flow Summary
  ********************
  
  -----------------------------------------------------------------------------
                                 Maximum  Time of Max   Maximum    Max/    Max/
                                  |Flow|   Occurrence   |Veloc|    Full    Full
  Link                 Type          CMS  days hr:min     m/sec    Flow   Depth
  -----------------------------------------------------------------------------
  C1                   CONDUIT     0.039     0  22:32      1.02    0.01    0.10
  C6                   CONDUIT     0.072     0  21:42      1.28    1.14    0.77
  C2                   CONDUIT     0.028     0  20:40      1.04    0.03    0.16
  C9                   CONDUIT     0.127     0  19:26      1.25    0.43    0.72
  C16                  CONDUIT     0.486     0  19:22      1.83    0.05    0.18
  C3                   CONDUIT     0.088     0  15:10      1.65    0.03    0.12
  C19                  CONDUIT     0.033     0  20:42      0.69    0.01    0.22
  C11                  CONDUIT     0.127     0  22:34      1.45    0.01    0.12
  C20                  CONDUIT     1.019     0  21:36      3.64    0.03    0.15
  C22                  CONDUIT     0.202     0  21:42      1.48    0.09    0.34
  C12                  CONDUIT     0.075     0  20:53      1.11    0.01    0.30
  C17                  CONDUIT     1.988     0  19:12      4.23    0.10    0.34
  C10                  CONDUIT     2.284     0  19:07      1.83    0.23    0.66
  C13                  CONDUIT     1.596     0  19:11      2.21    0.09    0.77
  C18                  CONDUIT     0.845     0  21:41      1.01    0.03    0.56
  C23                  CONDUIT     1.231     0  21:38      1.13    0.14    0.62
  C4                   CONDUIT     0.471     0  21:36      1.13    0.11    0.61
  C7                   CONDUIT     0.239     0  21:42      0.82    0.06    0.58
  C14                  CONDUIT     0.271     0  21:38      2.08    0.02    0.09
  C5                   CONDUIT     0.085     0  21:37      1.70    1.46    1.00
  C8                   CONDUIT     0.127     0  19:26      1.89    1.60    0.86
  C15                  CONDUIT     0.487     0  19:27      3.96    1.55    0.83
  C21                  CONDUIT     0.202     0  21:42      1.85    1.16    0.69
  V4                   ORIFICE     0.028     0  19:53                      0.35
  V5                   ORIFICE     0.039     0  21:50                      1.00
  V1                   ORIFICE     0.271     0  21:37                      1.00
  V6                   ORIFICE     0.075     0  15:20                      0.43
  V3                   ORIFICE     0.088     0  15:10                      0.65
  V2                   ORIFICE     0.033     0  19:47                      0.24
  
  
  ***************************
  Flow Classification Summary
  ***************************
  
  -------------------------------------------------------------------------------------
                      Adjusted    ---------- Fraction of Time in Flow Class ---------- 
                       /Actual         Up    Down  Sub   Sup   Up    Down  Norm  Inlet 
  Conduit               Length    Dry  Dry   Dry   Crit  Crit  Crit  Crit  Ltd   Ctrl  
  -------------------------------------------------------------------------------------
  C1                      1.00   0.00  0.00  0.00  0.06  0.94  0.00  0.00  0.96  0.00
  C6                      1.00   0.00  0.00  0.00  0.06  0.94  0.00  0.00  0.00  0.00
  C2                      1.00   0.00  0.00  0.00  0.49  0.50  0.00  0.00  0.98  0.00
  C9                      1.00   0.00  0.00  0.00  1.00  0.00  0.00  0.00  1.00  0.00
  C16                     1.00   0.00  0.11  0.00  0.54  0.35  0.00  0.00  0.41  0.00
  C3                      1.00   0.00  0.00  0.00  0.04  0.96  0.00  0.00  0.58  0.00
  C19                     1.00   0.00  0.00  0.00  1.00  0.00  0.00  0.00  1.00  0.00
  C11                     1.00   0.00  0.00  0.00  0.16  0.84  0.00  0.00  1.00  0.00
  C20                     1.00   0.00  0.00  0.00  0.74  0.26  0.00  0.00  0.99  0.00
  C22                     1.00   0.00  0.00  0.00  0.93  0.07  0.00  0.00  1.00  0.00
  C12                     1.00   0.00  0.00  0.00  0.50  0.50  0.00  0.00  0.96  0.00
  C17                     1.00   0.00  0.00  0.00  0.49  0.51  0.00  0.00  0.96  0.00
  C10                     1.00   0.00  0.00  0.00  0.97  0.03  0.00  0.00  0.98  0.00
  C13                     1.00   0.00  0.00  0.00  0.87  0.13  0.00  0.00  0.70  0.00
  C18                     1.00   0.00  0.00  0.00  0.93  0.07  0.00  0.00  0.98  0.00
  C23                     1.00   0.00  0.00  0.00  0.88  0.12  0.00  0.00  0.96  0.00
  C4                      1.00   0.00  0.00  0.00  0.88  0.12  0.00  0.00  0.98  0.00
  C7                      1.00   0.00  0.00  0.00  0.95  0.05  0.00  0.00  0.97  0.00
  C14                     1.00   0.00  0.00  0.00  0.00  1.00  0.00  0.00  0.61  0.00
  C5                      1.00   0.00  0.00  0.00  0.92  0.08  0.00  0.00  0.92  0.00
  C8                      1.00   0.00  0.00  0.00  0.20  0.80  0.00  0.00  0.00  0.00
  C15                     1.00   0.11  0.00  0.00  0.00  0.89  0.00  0.00  0.01  0.00
  C21                     1.00   0.00  0.00  0.00  0.00  1.00  0.00  0.00  0.00  0.00
  
  
  *************************
  Conduit Surcharge Summary
  *************************
  
  ----------------------------------------------------------------------------
                                                           Hours        Hours 
                         --------- Hours Full --------   Above Full   Capacity
  Conduit                Both Ends  Upstream  Dnstream   Normal Flow   Limited
  ----------------------------------------------------------------------------
  C6                          0.01      0.53      0.01      0.33         0.01
  C10                         0.01      0.01     20.03      0.01         0.01
  C13                         0.01      0.01      8.99      0.01         0.01
  C18                         0.01      0.01      9.38      0.01         0.01
  C23                         0.01      0.01     11.63      0.01         0.01
  C4                          0.01      0.01     20.07      0.01         0.01
  C7                          0.01      0.01     19.76      0.01         0.01
  C5                          0.80      0.93      1.18      0.95         0.68
  C8                          0.01      1.11      0.01      1.09         0.01
  C15                         0.01      0.65      0.01      0.75         0.01
  C21                         0.01      0.51      0.01      0.45         0.01
  

  Analysis begun on:  Mon Sep 20 20:53:57 2021
  Analysis ended on:  Mon Sep 20 20:53:57 2021
  Total elapsed time: < 1 sec