
  EPA STORM WATER MANAGEMENT MODEL - VERSION 5.1 (Build 5.3.0.dev0)
  --------------------------------------------------------------

  WARNING 09: time series interval greater than recording interval for Rain Gage RG1
  WARNING 09: time series interval greater than recording interval for Rain Gage RG2
  WARNING 09: time series interval greater than recording interval for Rain Gage RG3
  WARNING 09: time series interval greater than recording interval for Rain Gage RG4
  
  *********************************************************
  NOTE: The summary statistics displayed in this report are
  based on results found at every computational time step,  
  not just on results from each reporting time step.
  *********************************************************
  
  ****************
  Analysis Options
  ****************
  Flow Units ............... CMS
  Process Models:
    Rainfall/Runoff ........ YES
    RDII ................... NO
    Snowmelt ............... NO
    Groundwater ............ NO
    Flow Routing ........... YES
    Ponding Allowed ........ YES
    Water Quality .......... NO
  Infiltration Method ...... HORTON
  Flow Routing Method ...... DYNWAVE
  Surcharge Method ......... EXTRAN
  Starting Date ............ 08/28/2015 00:00:00
  Ending Date .............. 08/28/2015 23:40:00
  Antecedent Dry Days ...... 0.0
  Report Time Step ......... 00:01:00
  Wet Time Step ............ 00:01:00
  Dry Time Step ............ 00:01:00
  Routing Time Step ........ 5.00 sec
  Variable Time Step ....... YES
  Maximum Trials ........... 8
  Number of Threads ........ 1
  Head Tolerance ........... 0.001500 m
  
  
  **************************        Volume         Depth
  Runoff Quantity Continuity     hectare-m            mm
  **************************     ---------       -------
  Total Precipitation ......         1.979        10.984
  Evaporation Loss .........         0.000         0.000
  Infiltration Loss ........         0.000         0.000
  Surface Runoff ...........         1.956        10.853
  Final Storage ............         0.033         0.181
  Continuity Error (%) .....        -0.455
  
  
  **************************        Volume        Volume
  Flow Routing Continuity        hectare-m      10^6 ltr
  **************************     ---------     ---------
  Dry Weather Inflow .......         0.758         7.576
  Wet Weather Inflow .......         1.956        19.557
  Groundwater Inflow .......         0.000         0.000
  RDII Inflow ..............         0.000         0.000
  External Inflow ..........         0.000         0.000
  External Outflow .........         0.876         8.762
  Flooding Loss ............         0.930         9.299
  Evaporation Loss .........         0.000         0.000
  Exfiltration Loss ........         0.000         0.000
  Initial Stored Volume ....         0.000         0.000
  Final Stored Volume ......         0.691         6.906
  Continuity Error (%) .....         7.982
  
  
  *************************
  Highest Continuity Errors
  *************************
  Node T3 (19.69%)
  Node T5 (15.83%)
  Node T6 (15.29%)
  Node T2 (12.52%)
  Node T4 (10.52%)
  
  
  ***************************
  Time-Step Critical Elements
  ***************************
  None
  
  
  ********************************
  Highest Flow Instability Indexes
  ********************************
  All links are stable.
  
  
  *************************
  Routing Time Step Summary
  *************************
  Minimum Time Step           :     4.50 sec
  Average Time Step           :     5.00 sec
  Maximum Time Step           :     5.00 sec
  Percent in Steady State     :     0.00
  Average Iterations per Step :     2.10
  Percent Not Converging      :     0.17
  
  
  ***************************
  Subcatchment Runoff Summary
  ***************************
  
  ------------------------------------------------------------------------------------------------------------------------------
                            Total      Total      Total      Total     Imperv       Perv      Total       Total     Peak  Runoff
                           Precip      Runon       Evap      Infil     Runoff     Runoff     Runoff      Runoff   Runoff   Coeff
  Subcatchment                 mm         mm         mm         mm         mm         mm         mm    10^6 ltr      CMS
  ------------------------------------------------------------------------------------------------------------------------------
  SC01                       7.80       0.00       0.00       0.00       7.71       0.00       7.71        2.54     1.56   0.989
  SC02                      27.07       0.00       0.00       0.00      27.09       0.00      27.09        6.16     5.60   1.001
  SC03                       7.92       0.00       0.00       0.00       7.91       0.00       7.91        1.42     1.55   0.998
  SC04                      27.07       0.00       0.00       0.00      26.79       0.00      26.79        1.85     1.00   0.989
  SC05                       7.80       0.00       0.00       0.00       7.70       0.00       7.70        1.20     0.69   0.987
  SC06                       5.40       0.00       0.00       0.00       5.10       0.00       5.10        1.66     0.45   0.944
  SC07                      27.07       0.00       0.00       0.00      26.79       0.00      26.79        1.27     0.69   0.990
  SC08                       7.92       0.00       0.00       0.00       7.80       0.00       7.80        2.18     1.36   0.985
  SC09                       5.40       0.00       0.00       0.00       5.24       0.00       5.24        0.36     0.14   0.969
  SC010                      7.80       0.00       0.00       0.00       7.66       0.00       7.66        0.90     0.44   0.982
  
  
  ******************
  Node Depth Summary
  ******************
  
  ---------------------------------------------------------------------------------
                                 Average  Maximum  Maximum  Time of Max    Reported
                                   Depth    Depth      HGL   Occurrence   Max Depth
  Node                 Type       Meters   Meters   Meters  days hr:min      Meters
  ---------------------------------------------------------------------------------
  J1                   JUNCTION     0.05     0.27    34.27     0  19:06        0.27
  J3                   JUNCTION     0.07     0.11    18.11     0  21:22        0.11
  CSO7                 JUNCTION     0.12     1.20    35.20     0  19:10        1.20
  J5                   JUNCTION     0.05     0.34    32.34     0  19:16        0.34
  CSO9                 JUNCTION     0.08     2.00    42.00     0  19:26        2.00
  J8                   JUNCTION     0.07     0.24    36.24     0  19:33        0.24
  CSO8                 JUNCTION     0.10     2.00    34.00     0  19:25        2.00
  J10                  JUNCTION     0.05     0.40    29.40     0  19:32        0.40
  J13                  JUNCTION     0.05     0.60    29.60     0  19:16        0.56
  J15                  JUNCTION     0.11     0.40    15.40     0  19:08        0.40
  J16                  JUNCTION     0.04     0.29    30.29     0  19:01        0.29
  CSO10                JUNCTION     0.08     1.00    31.00     0  19:01        1.00
  J12                  JUNCTION     0.09     0.39    26.39     0  19:34        0.39
  J4                   JUNCTION     0.10     1.11    34.11     0  19:16        1.03
  J6                   JUNCTION     0.04     0.07    25.07     0  20:21        0.07
  J2                   JUNCTION     0.05     0.08    25.08     0  20:37        0.08
  J19                  JUNCTION     0.10     0.17     8.17     0  19:31        0.17
  J9                   JUNCTION     0.06     0.11    29.11     0  20:58        0.11
  J14                  JUNCTION     0.07     0.10    20.10     0  23:40        0.10
  J17                  JUNCTION     0.04     0.08    20.08     0  20:33        0.08
  J7                   JUNCTION     0.05     0.22    39.22     0  19:33        0.22
  J11                  JUNCTION     0.05     0.30    31.30     0  19:53        0.30
  J18                  JUNCTION     0.03     0.16    29.16     0  19:17        0.16
  Out_to_WWTP          OUTFALL      0.10     0.17     6.17     0  20:44        0.17
  T5                   STORAGE      1.36     5.00    32.00     0  19:59        5.00
  T4                   STORAGE      1.75     5.00    32.00     0  19:22        5.00
  T6                   STORAGE      2.16     5.00    36.00     0  19:36        5.00
  T3                   STORAGE      0.92     4.30    26.30     0  23:40        4.30
  T2                   STORAGE      1.54     5.00    26.00     0  19:17        5.00
  T1                   STORAGE      1.15     5.00    15.00     0  19:29        5.00
  
  
  *******************
  Node Inflow Summary
  *******************
  
  -------------------------------------------------------------------------------------------------
                                  Maximum  Maximum                  Lateral       Total        Flow
                                  Lateral    Total  Time of Max      Inflow      Inflow     Balance
                                   Inflow   Inflow   Occurrence      Volume      Volume       Error
  Node                 Type           CMS      CMS  days hr:min    10^6 ltr    10^6 ltr     Percent
  -------------------------------------------------------------------------------------------------
  J1                   JUNCTION     0.707    0.707     0  19:06        2.29        2.29      -0.024
  J3                   JUNCTION     0.000    0.121     0  21:21           0           5       0.541
  CSO7                 JUNCTION     0.697    0.697     0  19:16        1.84        1.84      -0.011
  J5                   JUNCTION     1.002    1.074     0  19:16         2.1         3.1       0.061
  CSO9                 JUNCTION     0.141    0.141     0  19:26       0.743       0.743      -0.005
  J8                   JUNCTION     0.474    0.576     0  19:31        3.49        4.23       0.071
  CSO8                 JUNCTION     1.363    1.363     0  19:31        2.63        2.63      -0.022
  J10                  JUNCTION     1.556    1.967     0  19:31        2.17        4.14      -0.177
  J13                  JUNCTION     5.613    5.613     0  19:16        7.07        7.07       0.000
  J15                  JUNCTION     0.000    1.723     0  19:06           0        10.5       0.637
  J16                  JUNCTION     1.572    1.572     0  19:06        3.62        3.62      -0.123
  CSO10                JUNCTION     0.443    0.443     0  19:06        1.17        1.17      -0.079
  J12                  JUNCTION     0.000    1.731     0  19:32           0        6.28       2.515
  J4                   JUNCTION     0.000    0.085     0  19:13           0        1.01       0.064
  J6                   JUNCTION     0.000    0.028     0  19:30           0       0.857       0.478
  J2                   JUNCTION     0.000    0.039     0  20:00           0        1.47       0.347
  J19                  JUNCTION     0.000    0.271     0  19:29           0        8.77       0.118
  J9                   JUNCTION     0.000    0.075     0  19:36           0        2.15       0.759
  J14                  JUNCTION     0.000    0.056     0  23:40           0        2.69       0.151
  J17                  JUNCTION     0.000    0.033     0  19:30           0       0.891       0.753
  J7                   JUNCTION     0.000    0.125     0  19:32           0        0.74       0.178
  J11                  JUNCTION     0.000    0.486     0  19:53           0        1.98       0.479
  J18                  JUNCTION     0.000    0.202     0  19:17           0        1.06       0.033
  Out_to_WWTP          OUTFALL      0.000    0.271     0  19:31           0        8.76       0.000
  T5                   STORAGE      0.000    0.656     0  19:06           0        2.29      18.808
  T4                   STORAGE      0.000    1.005     0  19:16           0         3.1      11.756
  T6                   STORAGE      0.000    0.550     0  19:33           0        4.23      18.053
  T3                   STORAGE      0.000    1.449     0  19:34           0        6.13      24.518
  T2                   STORAGE      0.000    5.275     0  19:16           0        7.07      14.305
  T1                   STORAGE      0.000    1.415     0  19:09           0        10.5       4.902
  
  
  **********************
  Node Surcharge Summary
  **********************
  
  Surcharging occurs when water rises above the top of the highest conduit.
  ---------------------------------------------------------------------
                                               Max. Height   Min. Depth
                                   Hours       Above Crown    Below Rim
  Node                 Type      Surcharged         Meters       Meters
  ---------------------------------------------------------------------
  CSO7                 JUNCTION        1.17          0.945        0.000
  CSO9                 JUNCTION        0.47          1.682        0.000
  CSO8                 JUNCTION        0.57          1.547        0.000
  CSO10                JUNCTION        0.35          0.560        0.000
  J4                   JUNCTION        1.11          0.810        0.890
  
  
  *********************
  Node Flooding Summary
  *********************
  
  Flooding refers to all water that overflows a node, whether it ponds or not.
  --------------------------------------------------------------------------
                                                             Total   Maximum
                                 Maximum   Time of Max       Flood    Ponded
                        Hours       Rate    Occurrence      Volume     Depth
  Node                 Flooded       CMS   days hr:min    10^6 ltr    Meters
  --------------------------------------------------------------------------
  CSO7                    1.07     0.624      0  19:16       0.830     0.000
  CSO9                    0.07     0.058      0  19:26       0.003     0.000
  CSO8                    0.47     0.882      0  19:31       0.654     0.000
  CSO10                   0.28     0.241      0  19:06       0.111     0.000
  T5                      0.63     0.124      0  19:59       0.097     0.000
  T4                      2.48     0.891      0  19:22       1.464     0.000
  T6                      1.54     0.459      0  19:36       0.977     0.000
  T2                      2.32     4.249      0  19:17       4.350     0.000
  T1                      1.09     0.494      0  19:54       0.814     0.000
  
  
  **********************
  Storage Volume Summary
  **********************
  
  --------------------------------------------------------------------------------------------------
                         Average     Avg  Evap Exfil       Maximum     Max    Time of Max    Maximum
                          Volume    Pcnt  Pcnt  Pcnt        Volume    Pcnt     Occurrence    Outflow
  Storage Unit           1000 m3    Full  Loss  Loss       1000 m3    Full    days hr:min        CMS
  --------------------------------------------------------------------------------------------------
  T5                       0.136      27     0     0         0.500     100       0  19:59      0.039
  T4                       0.175      35     0     0         0.500     100       0  19:22      0.028
  T6                       0.259      43     0     0         0.600     100       0  19:36      0.075
  T3                       0.480      18     0     0         2.234      86       0  23:40      0.056
  T2                       0.309      31     0     0         1.000     100       0  19:17      0.033
  T1                       0.160      23     0     0         0.700     100       0  19:29      0.271
  
  
  ***********************
  Outfall Loading Summary
  ***********************
  
  -----------------------------------------------------------
                         Flow       Avg       Max       Total
                         Freq      Flow      Flow      Volume
  Outfall Node           Pcnt       CMS       CMS    10^6 ltr
  -----------------------------------------------------------
  Out_to_WWTP           99.43     0.103     0.271       8.762
  -----------------------------------------------------------
  System                99.43     0.103     0.271       8.762
  
  
  ********************
  Link Flow Summary
  ********************
  
  -----------------------------------------------------------------------------
                                 Maximum  Time of Max   Maximum    Max/    Max/
                                  |Flow|   Occurrence   |Veloc|    Full    Full
  Link                 Type          CMS  days hr:min     m/sec    Flow   Depth
  -----------------------------------------------------------------------------
  C1                   CONDUIT     0.039     0  20:37      1.11    0.01    0.09
  C6                   CONDUIT     0.076     0  19:36      1.29    1.20    1.00
  C2                   CONDUIT     0.028     0  20:21      1.17    0.03    0.15
  C9                   CONDUIT     0.115     0  19:33      1.31    0.39    0.46
  C16                  CONDUIT     0.486     0  19:48      1.81    0.05    0.17
  C3                   CONDUIT     0.056     0  23:40      1.27    0.02    0.11
  C19                  CONDUIT     0.033     0  20:33      0.73    0.01    0.22
  C11                  CONDUIT     0.121     0  21:22      1.46    0.01    0.12
  C20                  CONDUIT     1.447     0  19:06      5.66    0.05    0.17
  C22                  CONDUIT     0.202     0  19:17      1.55    0.09    0.35
  C12                  CONDUIT     0.075     0  20:58      1.07    0.01    0.12
  C17                  CONDUIT     1.666     0  19:32      4.08    0.08    0.19
  C10                  CONDUIT     0.550     0  19:33      0.94    0.06    0.58
  C13                  CONDUIT     1.449     0  19:34      1.67    0.09    0.59
  C18                  CONDUIT     5.275     0  19:16      2.44    0.20    0.65
  C23                  CONDUIT     1.415     0  19:09      1.33    0.16    0.63
  C4                   CONDUIT     0.656     0  19:06      1.25    0.16    0.63
  C7                   CONDUIT     1.005     0  19:16      1.80    0.25    0.67
  C14                  CONDUIT     0.271     0  19:31      2.08    0.02    0.09
  C5                   CONDUIT     0.085     0  19:13      1.73    1.46    1.00
  C8                   CONDUIT     0.125     0  19:32      1.99    1.58    0.84
  C15                  CONDUIT     0.486     0  19:53      4.25    1.55    0.83
  C21                  CONDUIT     0.202     0  19:17      1.99    1.16    0.69
  V4                   ORIFICE     0.028     0  19:30                      0.35
  V5                   ORIFICE     0.039     0  20:00                      1.00
  V1                   ORIFICE     0.271     0  19:29                      1.00
  V6                   ORIFICE     0.075     0  19:36                      0.43
  V3                   ORIFICE     0.056     0  23:40                      0.65
  V2                   ORIFICE     0.033     0  19:30                      0.24
  
  
  ***************************
  Flow Classification Summary
  ***************************
  
  -------------------------------------------------------------------------------------
                      Adjusted    ---------- Fraction of Time in Flow Class ---------- 
                       /Actual         Up    Down  Sub   Sup   Up    Down  Norm  Inlet 
  Conduit               Length    Dry  Dry   Dry   Crit  Crit  Crit  Crit  Ltd   Ctrl  
  -------------------------------------------------------------------------------------
  C1                      1.00   0.00  0.00  0.00  0.16  0.84  0.00  0.00  0.98  0.00
  C6                      1.00   0.00  0.00  0.00  0.06  0.94  0.00  0.00  0.00  0.00
  C2                      1.00   0.00  0.00  0.00  0.80  0.20  0.00  0.00  0.99  0.00
  C9                      1.00   0.00  0.00  0.00  1.00  0.00  0.00  0.00  1.00  0.00
  C16                     1.00   0.00  0.00  0.00  0.91  0.09  0.00  0.00  0.63  0.00
  C3                      1.00   0.00  0.00  0.00  0.01  0.99  0.00  0.00  0.37  0.00
  C19                     1.00   0.00  0.00  0.00  1.00  0.00  0.00  0.00  1.00  0.00
  C11                     1.00   0.00  0.00  0.00  0.12  0.88  0.00  0.00  1.00  0.00
  C20                     1.00   0.00  0.00  0.00  0.81  0.19  0.00  0.00  0.99  0.00
  C22                     1.00   0.00  0.00  0.00  0.96  0.04  0.00  0.00  1.00  0.00
  C12                     1.00   0.00  0.00  0.00  0.77  0.22  0.00  0.00  1.00  0.00
  C17                     1.00   0.00  0.00  0.00  0.17  0.83  0.00  0.00  0.98  0.00
  C10                     1.00   0.00  0.00  0.00  0.97  0.03  0.00  0.00  0.98  0.00
  C13                     1.00   0.00  0.00  0.00  0.95  0.05  0.00  0.00  0.87  0.00
  C18                     1.00   0.00  0.00  0.00  0.95  0.05  0.00  0.00  0.98  0.00
  C23                     1.00   0.00  0.00  0.00  0.82  0.18  0.00  0.00  0.96  0.00
  C4                      1.00   0.00  0.00  0.00  0.82  0.18  0.00  0.00  0.98  0.00
  C7                      1.00   0.00  0.00  0.00  0.95  0.05  0.00  0.00  0.97  0.00
  C14                     1.00   0.00  0.00  0.00  0.00  1.00  0.00  0.00  0.76  0.00
  C5                      1.00   0.00  0.00  0.00  0.94  0.06  0.00  0.00  0.93  0.00
  C8                      1.00   0.00  0.00  0.00  0.23  0.77  0.00  0.00  0.00  0.00
  C15                     1.00   0.00  0.00  0.00  0.04  0.96  0.00  0.00  0.03  0.00
  C21                     1.00   0.00  0.00  0.00  0.00  1.00  0.00  0.00  0.00  0.00
  
  
  *************************
  Conduit Surcharge Summary
  *************************
  
  ----------------------------------------------------------------------------
                                                           Hours        Hours 
                         --------- Hours Full --------   Above Full   Capacity
  Conduit                Both Ends  Upstream  Dnstream   Normal Flow   Limited
  ----------------------------------------------------------------------------
  C6                          0.14      1.11      0.14      1.06         0.14
  C10                         0.01      0.01     13.53      0.01         0.01
  C13                         0.01      0.01      3.90      0.01         0.01
  C18                         0.01      0.01      4.47      0.01         0.01
  C23                         0.01      0.01      4.54      0.01         0.01
  C4                          0.01      0.01      9.16      0.01         0.01
  C7                          0.01      0.01     13.92      0.01         0.01
  C5                          1.11      1.17      1.20      1.16         1.09
  C8                          0.01      0.47      0.01      0.48         0.01
  C15                         0.01      0.57      0.01      0.58         0.01
  C21                         0.01      0.35      0.01      0.33         0.01
  

  Analysis begun on:  Mon Sep 20 21:06:47 2021
  Analysis ended on:  Mon Sep 20 21:06:48 2021
  Total elapsed time: 00:00:01