
  EPA STORM WATER MANAGEMENT MODEL - VERSION 5.1 (Build 5.3.0.dev0)
  --------------------------------------------------------------

  WARNING 09: time series interval greater than recording interval for Rain Gage RG1
  WARNING 09: time series interval greater than recording interval for Rain Gage RG2
  WARNING 09: time series interval greater than recording interval for Rain Gage RG3
  WARNING 09: time series interval greater than recording interval for Rain Gage RG4
  
  *********************************************************
  NOTE: The summary statistics displayed in this report are
  based on results found at every computational time step,  
  not just on results from each reporting time step.
  *********************************************************
  
  ****************
  Analysis Options
  ****************
  Flow Units ............... CMS
  Process Models:
    Rainfall/Runoff ........ YES
    RDII ................... NO
    Snowmelt ............... NO
    Groundwater ............ NO
    Flow Routing ........... YES
    Ponding Allowed ........ YES
    Water Quality .......... NO
  Infiltration Method ...... HORTON
  Flow Routing Method ...... DYNWAVE
  Surcharge Method ......... EXTRAN
  Starting Date ............ 08/28/2015 00:00:00
  Ending Date .............. 08/28/2015 23:40:00
  Antecedent Dry Days ...... 0.0
  Report Time Step ......... 00:01:00
  Wet Time Step ............ 00:01:00
  Dry Time Step ............ 00:01:00
  Routing Time Step ........ 5.00 sec
  Variable Time Step ....... YES
  Maximum Trials ........... 8
  Number of Threads ........ 1
  Head Tolerance ........... 0.001500 m
  
  
  **************************        Volume         Depth
  Runoff Quantity Continuity     hectare-m            mm
  **************************     ---------       -------
  Total Precipitation ......         1.978        10.976
  Evaporation Loss .........         0.000         0.000
  Infiltration Loss ........         0.000         0.000
  Surface Runoff ...........         1.826        10.135
  Final Storage ............         0.155         0.860
  Continuity Error (%) .....        -0.178
  
  
  **************************        Volume        Volume
  Flow Routing Continuity        hectare-m      10^6 ltr
  **************************     ---------     ---------
  Dry Weather Inflow .......         0.758         7.576
  Wet Weather Inflow .......         1.824        18.244
  Groundwater Inflow .......         0.000         0.000
  RDII Inflow ..............         0.000         0.000
  External Inflow ..........         0.000         0.000
  External Outflow .........         0.762         7.617
  Flooding Loss ............         0.654         6.535
  Evaporation Loss .........         0.000         0.000
  Exfiltration Loss ........         0.000         0.000
  Initial Stored Volume ....         0.000         0.000
  Final Stored Volume ......         0.859         8.589
  Continuity Error (%) .....        11.921
  
  
  *************************
  Highest Continuity Errors
  *************************
  Node T2 (26.61%)
  Node T3 (20.37%)
  Node T5 (18.47%)
  Node T4 (17.71%)
  Node T6 (14.20%)
  
  
  ***************************
  Time-Step Critical Elements
  ***************************
  None
  
  
  ********************************
  Highest Flow Instability Indexes
  ********************************
  All links are stable.
  
  
  *************************
  Routing Time Step Summary
  *************************
  Minimum Time Step           :     4.50 sec
  Average Time Step           :     5.00 sec
  Maximum Time Step           :     5.00 sec
  Percent in Steady State     :     0.00
  Average Iterations per Step :     2.08
  Percent Not Converging      :     0.44
  
  
  ***************************
  Subcatchment Runoff Summary
  ***************************
  
  ------------------------------------------------------------------------------------------------------------------------------
                            Total      Total      Total      Total     Imperv       Perv      Total       Total     Peak  Runoff
                           Precip      Runon       Evap      Infil     Runoff     Runoff     Runoff      Runoff   Runoff   Coeff
  Subcatchment                 mm         mm         mm         mm         mm         mm         mm    10^6 ltr      CMS
  ------------------------------------------------------------------------------------------------------------------------------
  SC01                      10.96       0.00       0.00       0.00      10.28       0.00      10.28        3.39     1.02   0.938
  SC02                      12.28       0.00       0.00       0.00      11.64       0.00      11.64        2.65     0.77   0.948
  SC03                      10.00       0.00       0.00       0.00       9.62       0.00       9.62        1.73     0.64   0.962
  SC04                      12.28       0.00       0.00       0.00      11.05       0.00      11.05        0.76     0.17   0.900
  SC05                      10.96       0.00       0.00       0.00      10.23       0.00      10.23        1.60     0.47   0.933
  SC06                      11.00       0.00       0.00       0.00       9.60       0.00       9.60        3.12     0.89   0.873
  SC07                      12.28       0.00       0.00       0.00      11.05       0.00      11.05        0.53     0.12   0.900
  SC08                      10.00       0.00       0.00       0.00       9.28       0.00       9.28        2.60     0.68   0.928
  SC09                      11.00       0.00       0.00       0.00      10.13       0.00      10.13        0.70     0.25   0.921
  SC010                     10.96       0.00       0.00       0.00      10.09       0.00      10.09        1.19     0.32   0.921
  
  
  ******************
  Node Depth Summary
  ******************
  
  ---------------------------------------------------------------------------------
                                 Average  Maximum  Maximum  Time of Max    Reported
                                   Depth    Depth      HGL   Occurrence   Max Depth
  Node                 Type       Meters   Meters   Meters  days hr:min      Meters
  ---------------------------------------------------------------------------------
  J1                   JUNCTION     0.05     0.22    34.22     0  22:16        0.22
  J3                   JUNCTION     0.07     0.11    18.11     0  23:35        0.11
  CSO7                 JUNCTION     0.09     1.20    35.20     0  22:10        1.20
  J5                   JUNCTION     0.05     0.16    32.16     0  22:17        0.16
  CSO9                 JUNCTION     0.10     2.00    42.00     0  22:15        2.00
  J8                   JUNCTION     0.08     0.31    36.31     0  22:22        0.31
  CSO8                 JUNCTION     0.09     2.00    34.00     0  22:15        2.00
  J10                  JUNCTION     0.06     0.29    29.29     0  22:22        0.29
  J13                  JUNCTION     0.05     0.22    29.22     0  22:16        0.22
  J15                  JUNCTION     0.11     0.36    15.36     0  22:18        0.36
  J16                  JUNCTION     0.05     0.24    30.24     0  22:16        0.23
  CSO10                JUNCTION     0.09     1.00    31.00     0  22:06        1.00
  J12                  JUNCTION     0.10     0.89    26.89     0  23:37        0.88
  J4                   JUNCTION     0.10     1.42    34.42     0  22:13        0.75
  J6                   JUNCTION     0.04     0.07    25.07     0  22:51        0.07
  J2                   JUNCTION     0.05     0.08    25.08     0  22:59        0.08
  J19                  JUNCTION     0.09     0.17     8.17     0  21:54        0.17
  J9                   JUNCTION     0.05     0.11    29.11     0  23:40        0.11
  J14                  JUNCTION     0.07     0.12    20.12     0  21:50        0.12
  J17                  JUNCTION     0.03     0.08    20.08     0  23:09        0.08
  J7                   JUNCTION     0.06     0.23    39.23     0  22:33        0.23
  J11                  JUNCTION     0.06     0.30    31.30     0  22:27        0.30
  J18                  JUNCTION     0.04     0.16    29.16     0  22:23        0.16
  Out_to_WWTP          OUTFALL      0.09     0.17     6.17     0  21:53        0.17
  T5                   STORAGE      1.06     5.00    32.00     0  22:12        5.00
  T4                   STORAGE      1.41     5.00    32.00     0  21:58        5.00
  T6                   STORAGE      2.05     5.00    36.00     0  21:11        5.00
  T3                   STORAGE      0.66     4.88    26.88     0  23:40        4.88
  T2                   STORAGE      1.11     5.00    26.00     0  22:10        5.00
  T1                   STORAGE      0.94     5.00    15.00     0  21:53        5.00
  
  
  *******************
  Node Inflow Summary
  *******************
  
  -------------------------------------------------------------------------------------------------
                                  Maximum  Maximum                  Lateral       Total        Flow
                                  Lateral    Total  Time of Max      Inflow      Inflow     Balance
                                   Inflow   Inflow   Occurrence      Volume      Volume       Error
  Node                 Type           CMS      CMS  days hr:min    10^6 ltr    10^6 ltr     Percent
  -------------------------------------------------------------------------------------------------
  J1                   JUNCTION     0.470    0.470     0  22:16        2.69        2.69       0.215
  J3                   JUNCTION     0.000    0.128     0  21:50           0         4.5       0.634
  CSO7                 JUNCTION     0.120    0.120     0  22:16        1.09        1.09       0.084
  J5                   JUNCTION     0.171    0.243     0  22:16        1.01        2.07       0.334
  CSO9                 JUNCTION     0.247    0.247     0  22:21        1.08        1.08       0.080
  J8                   JUNCTION     0.901    1.017     0  22:21        4.95        5.98       0.429
  CSO8                 JUNCTION     0.680    0.680     0  22:16        3.04        3.04       0.043
  J10                  JUNCTION     0.641    0.987     0  22:21        2.48        5.45       0.348
  J13                  JUNCTION     0.777    0.777     0  22:16        3.56        3.56       0.228
  J15                  JUNCTION     0.000    1.284     0  22:16           0          11       1.029
  J16                  JUNCTION     1.019    1.019     0  22:16        4.47        4.47       0.215
  CSO10                JUNCTION     0.325    0.325     0  22:16        1.45        1.45       0.132
  J12                  JUNCTION     0.000    0.998     0  22:22           0         7.3      10.362
  J4                   JUNCTION     0.000    0.085     0  22:11           0        1.06       0.589
  J6                   JUNCTION     0.000    0.028     0  22:00           0       0.669       0.633
  J2                   JUNCTION     0.000    0.039     0  22:12           0        1.28       0.447
  J19                  JUNCTION     0.000    0.271     0  21:53           0        7.63       0.166
  J9                   JUNCTION     0.000    0.075     0  22:00           0        1.72       1.040
  J14                  JUNCTION     0.000    0.079     0  21:50           0        2.57       0.169
  J17                  JUNCTION     0.000    0.033     0  22:10           0        0.63       1.042
  J7                   JUNCTION     0.000    0.127     0  22:33           0        1.04       0.722
  J11                  JUNCTION     0.000    0.486     0  22:27           0        2.99       0.752
  J18                  JUNCTION     0.000    0.202     0  22:23           0        1.41       0.607
  Out_to_WWTP          OUTFALL      0.000    0.271     0  21:54           0        7.62       0.000
  T5                   STORAGE      0.000    0.435     0  22:16           0        2.68      22.649
  T4                   STORAGE      0.000    0.230     0  22:17           0        2.06      21.514
  T6                   STORAGE      0.000    0.933     0  22:22           0        5.96      16.547
  T3                   STORAGE      0.000    0.954     0  22:23           0        6.61      25.587
  T2                   STORAGE      0.000    0.714     0  22:16           0        3.55      36.260
  T1                   STORAGE      0.000    1.162     0  22:18           0        10.8       8.295
  
  
  **********************
  Node Surcharge Summary
  **********************
  
  Surcharging occurs when water rises above the top of the highest conduit.
  ---------------------------------------------------------------------
                                               Max. Height   Min. Depth
                                   Hours       Above Crown    Below Rim
  Node                 Type      Surcharged         Meters       Meters
  ---------------------------------------------------------------------
  CSO7                 JUNCTION        0.48          0.945        0.000
  CSO9                 JUNCTION        0.60          1.682        0.000
  CSO8                 JUNCTION        0.49          1.547        0.000
  CSO10                JUNCTION        0.35          0.560        0.000
  J4                   JUNCTION        0.48          1.118        0.582
  
  
  *********************
  Node Flooding Summary
  *********************
  
  Flooding refers to all water that overflows a node, whether it ponds or not.
  --------------------------------------------------------------------------
                                                             Total   Maximum
                                 Maximum   Time of Max       Flood    Ponded
                        Hours       Rate    Occurrence      Volume     Depth
  Node                 Flooded       CMS   days hr:min    10^6 ltr    Meters
  --------------------------------------------------------------------------
  CSO7                    0.36     0.048      0  22:16       0.027     0.000
  CSO9                    0.28     0.121      0  22:21       0.041     0.000
  CSO8                    0.18     0.205      0  22:16       0.049     0.000
  CSO10                   0.27     0.123      0  22:16       0.045     0.000
  T5                      1.34     0.396      0  22:16       0.405     0.000
  T4                      1.69     0.202      0  22:17       0.525     0.000
  T6                      2.48     0.858      0  22:23       2.787     0.000
  T2                      1.49     0.680      0  22:16       0.974     0.000
  T1                      1.72     0.892      0  22:18       1.683     0.000
  
  
  **********************
  Storage Volume Summary
  **********************
  
  --------------------------------------------------------------------------------------------------
                         Average     Avg  Evap Exfil       Maximum     Max    Time of Max    Maximum
                          Volume    Pcnt  Pcnt  Pcnt        Volume    Pcnt     Occurrence    Outflow
  Storage Unit           1000 m3    Full  Loss  Loss       1000 m3    Full    days hr:min        CMS
  --------------------------------------------------------------------------------------------------
  T5                       0.106      21     0     0         0.500     100       0  22:12      0.039
  T4                       0.141      28     0     0         0.500     100       0  21:58      0.028
  T6                       0.246      41     0     0         0.600     100       0  21:11      0.075
  T3                       0.341      13     0     0         2.540      98       0  23:40      0.279
  T2                       0.223      22     0     0         1.000     100       0  22:10      0.033
  T1                       0.132      19     0     0         0.700     100       0  21:53      0.271
  
  
  ***********************
  Outfall Loading Summary
  ***********************
  
  -----------------------------------------------------------
                         Flow       Avg       Max       Total
                         Freq      Flow      Flow      Volume
  Outfall Node           Pcnt       CMS       CMS    10^6 ltr
  -----------------------------------------------------------
  Out_to_WWTP           99.43     0.090     0.271       7.617
  -----------------------------------------------------------
  System                99.43     0.090     0.271       7.617
  
  
  ********************
  Link Flow Summary
  ********************
  
  -----------------------------------------------------------------------------
                                 Maximum  Time of Max   Maximum    Max/    Max/
                                  |Flow|   Occurrence   |Veloc|    Full    Full
  Link                 Type          CMS  days hr:min     m/sec    Flow   Depth
  -----------------------------------------------------------------------------
  C1                   CONDUIT     0.039     0  23:00      1.08    0.01    0.10
  C6                   CONDUIT     0.072     0  22:17      1.27    1.14    0.77
  C2                   CONDUIT     0.028     0  22:51      1.07    0.03    0.16
  C9                   CONDUIT     0.127     0  22:34      1.27    0.43    0.54
  C16                  CONDUIT     0.485     0  22:22      1.77    0.05    0.15
  C3                   CONDUIT     0.079     0  21:50      1.54    0.03    0.12
  C19                  CONDUIT     0.033     0  23:09      0.58    0.01    0.22
  C11                  CONDUIT     0.126     0  23:36      1.23    0.01    0.12
  C20                  CONDUIT     0.936     0  22:16      3.33    0.03    0.15
  C22                  CONDUIT     0.202     0  22:23      1.53    0.09    0.33
  C12                  CONDUIT     0.075     0  23:40      0.69    0.01    0.25
  C17                  CONDUIT     0.922     0  22:22      3.19    0.05    0.25
  C10                  CONDUIT     0.933     0  22:22      0.94    0.10    0.60
  C13                  CONDUIT     0.954     0  22:23      0.77    0.06    0.72
  C18                  CONDUIT     0.714     0  22:16      1.01    0.03    0.56
  C23                  CONDUIT     1.162     0  22:18      1.01    0.13    0.62
  C4                   CONDUIT     0.435     0  22:16      1.13    0.11    0.61
  C7                   CONDUIT     0.230     0  22:17      0.82    0.06    0.58
  C14                  CONDUIT     0.271     0  21:54      2.08    0.02    0.09
  C5                   CONDUIT     0.085     0  22:11      1.67    1.45    1.00
  C8                   CONDUIT     0.127     0  22:33      1.82    1.60    0.86
  C15                  CONDUIT     0.486     0  22:27      3.53    1.55    0.83
  C21                  CONDUIT     0.202     0  22:23      1.86    1.16    0.69
  V4                   ORIFICE     0.028     0  22:00                      0.35
  V5                   ORIFICE     0.039     0  22:12                      1.00
  V1                   ORIFICE     0.271     0  21:53                      1.00
  V6                   ORIFICE     0.075     0  22:00                      0.43
  V3                   ORIFICE     0.079     0  21:50                      0.65
  V2                   ORIFICE     0.033     0  22:10                      0.24
  
  
  ***************************
  Flow Classification Summary
  ***************************
  
  -------------------------------------------------------------------------------------
                      Adjusted    ---------- Fraction of Time in Flow Class ---------- 
                       /Actual         Up    Down  Sub   Sup   Up    Down  Norm  Inlet 
  Conduit               Length    Dry  Dry   Dry   Crit  Crit  Crit  Crit  Ltd   Ctrl  
  -------------------------------------------------------------------------------------
  C1                      1.00   0.00  0.00  0.00  0.01  0.98  0.00  0.00  0.96  0.00
  C6                      1.00   0.00  0.00  0.00  0.03  0.97  0.00  0.00  0.00  0.00
  C2                      1.00   0.00  0.00  0.00  0.87  0.13  0.00  0.00  0.98  0.00
  C9                      1.00   0.00  0.00  0.00  1.00  0.00  0.00  0.00  1.00  0.00
  C16                     1.00   0.00  0.25  0.00  0.60  0.15  0.00  0.00  0.49  0.00
  C3                      1.00   0.00  0.00  0.00  0.04  0.96  0.00  0.00  0.26  0.00
  C19                     1.00   0.00  0.00  0.00  1.00  0.00  0.00  0.00  1.00  0.00
  C11                     1.00   0.00  0.00  0.00  0.15  0.85  0.00  0.00  1.00  0.00
  C20                     1.00   0.00  0.00  0.00  0.72  0.28  0.00  0.00  0.99  0.00
  C22                     1.00   0.00  0.00  0.00  0.94  0.06  0.00  0.00  1.00  0.00
  C12                     1.00   0.00  0.00  0.00  0.86  0.14  0.00  0.00  0.98  0.00
  C17                     1.00   0.00  0.00  0.00  0.24  0.76  0.00  0.00  0.99  0.00
  C10                     1.00   0.00  0.00  0.00  0.97  0.03  0.00  0.00  0.98  0.00
  C13                     1.00   0.00  0.00  0.00  0.81  0.19  0.00  0.00  0.86  0.00
  C18                     1.00   0.00  0.00  0.00  0.96  0.04  0.00  0.00  0.98  0.00
  C23                     1.00   0.00  0.00  0.00  0.77  0.23  0.00  0.00  0.96  0.00
  C4                      1.00   0.00  0.00  0.00  0.82  0.18  0.00  0.00  0.98  0.00
  C7                      1.00   0.00  0.00  0.00  0.95  0.05  0.00  0.00  0.97  0.00
  C14                     1.00   0.00  0.00  0.00  0.00  1.00  0.00  0.00  0.42  0.00
  C5                      1.00   0.00  0.00  0.00  0.93  0.07  0.00  0.00  0.96  0.00
  C8                      1.00   0.00  0.00  0.00  0.18  0.82  0.00  0.00  0.00  0.00
  C15                     1.00   0.25  0.00  0.00  0.00  0.75  0.00  0.00  0.00  0.00
  C21                     1.00   0.00  0.00  0.00  0.00  1.00  0.00  0.00  0.00  0.00
  
  
  *************************
  Conduit Surcharge Summary
  *************************
  
  ----------------------------------------------------------------------------
                                                           Hours        Hours 
                         --------- Hours Full --------   Above Full   Capacity
  Conduit                Both Ends  Upstream  Dnstream   Normal Flow   Limited
  ----------------------------------------------------------------------------
  C6                          0.01      0.48      0.01      0.39         0.01
  C10                         0.01      0.01     13.00      0.01         0.01
  C13                         0.01      0.01      1.90      0.01         0.01
  C18                         0.01      0.01      3.34      0.01         0.01
  C23                         0.01      0.01      3.37      0.01         0.01
  C4                          0.01      0.01      8.05      0.01         0.01
  C7                          0.01      0.01     12.43      0.01         0.01
  C5                          0.47      0.48      0.59      0.53         0.45
  C8                          0.01      0.60      0.01      0.59         0.01
  C15                         0.01      0.50      0.01      0.57         0.01
  C21                         0.01      0.35      0.01      0.32         0.01
  

  Analysis begun on:  Mon Sep 20 21:19:45 2021
  Analysis ended on:  Mon Sep 20 21:19:46 2021
  Total elapsed time: 00:00:01