
  EPA STORM WATER MANAGEMENT MODEL - VERSION 5.1 (Build 5.3.0.dev0)
  --------------------------------------------------------------

  WARNING 09: time series interval greater than recording interval for Rain Gage RG1
  WARNING 09: time series interval greater than recording interval for Rain Gage RG2
  WARNING 09: time series interval greater than recording interval for Rain Gage RG3
  WARNING 09: time series interval greater than recording interval for Rain Gage RG4
  
  *********************************************************
  NOTE: The summary statistics displayed in this report are
  based on results found at every computational time step,  
  not just on results from each reporting time step.
  *********************************************************
  
  ****************
  Analysis Options
  ****************
  Flow Units ............... CMS
  Process Models:
    Rainfall/Runoff ........ YES
    RDII ................... NO
    Snowmelt ............... NO
    Groundwater ............ NO
    Flow Routing ........... YES
    Ponding Allowed ........ YES
    Water Quality .......... NO
  Infiltration Method ...... HORTON
  Flow Routing Method ...... DYNWAVE
  Surcharge Method ......... EXTRAN
  Starting Date ............ 08/28/2015 00:00:00
  Ending Date .............. 08/28/2015 23:40:00
  Antecedent Dry Days ...... 0.0
  Report Time Step ......... 00:01:00
  Wet Time Step ............ 00:01:00
  Dry Time Step ............ 00:01:00
  Routing Time Step ........ 5.00 sec
  Variable Time Step ....... YES
  Maximum Trials ........... 8
  Number of Threads ........ 1
  Head Tolerance ........... 0.001500 m
  
  
  **************************        Volume         Depth
  Runoff Quantity Continuity     hectare-m            mm
  **************************     ---------       -------
  Total Precipitation ......         6.660        36.961
  Evaporation Loss .........         0.000         0.000
  Infiltration Loss ........         0.000         0.000
  Surface Runoff ...........         6.651        36.907
  Final Storage ............         0.020         0.109
  Continuity Error (%) .....        -0.148
  
  
  **************************        Volume        Volume
  Flow Routing Continuity        hectare-m      10^6 ltr
  **************************     ---------     ---------
  Dry Weather Inflow .......         0.758         7.576
  Wet Weather Inflow .......         6.651        66.507
  Groundwater Inflow .......         0.000         0.000
  RDII Inflow ..............         0.000         0.000
  External Inflow ..........         0.000         0.000
  External Outflow .........         1.904        19.042
  Flooding Loss ............         4.669        46.688
  Evaporation Loss .........         0.000         0.000
  Exfiltration Loss ........         0.000         0.000
  Initial Stored Volume ....         0.000         0.000
  Final Stored Volume ......         0.696         6.961
  Continuity Error (%) .....         1.878
  
  
  *************************
  Highest Continuity Errors
  *************************
  Node T2 (10.30%)
  Node T3 (5.56%)
  Node T4 (4.76%)
  Node T5 (3.71%)
  Node J12 (3.20%)
  
  
  ***************************
  Time-Step Critical Elements
  ***************************
  None
  
  
  ********************************
  Highest Flow Instability Indexes
  ********************************
  Link C15 (2)
  Link C20 (1)
  Link C10 (1)
  Link C17 (1)
  
  
  *************************
  Routing Time Step Summary
  *************************
  Minimum Time Step           :     4.74 sec
  Average Time Step           :     5.00 sec
  Maximum Time Step           :     5.00 sec
  Percent in Steady State     :     0.00
  Average Iterations per Step :     2.56
  Percent Not Converging      :     1.04
  
  
  ***************************
  Subcatchment Runoff Summary
  ***************************
  
  ------------------------------------------------------------------------------------------------------------------------------
                            Total      Total      Total      Total     Imperv       Perv      Total       Total     Peak  Runoff
                           Precip      Runon       Evap      Infil     Runoff     Runoff     Runoff      Runoff   Runoff   Coeff
  Subcatchment                 mm         mm         mm         mm         mm         mm         mm    10^6 ltr      CMS
  ------------------------------------------------------------------------------------------------------------------------------
  SC01                      25.86       0.00       0.00       0.00      25.83       0.00      25.83        8.52     1.15   0.999
  SC02                      23.58       0.00       0.00       0.00      23.53       0.00      23.53        5.35     0.65   0.998
  SC03                      45.96       0.00       0.00       0.00      46.08       0.00      46.08        8.30     1.78   1.003
  SC04                      23.58       0.00       0.00       0.00      23.47       0.00      23.47        1.62     0.16   0.995
  SC05                      25.86       0.00       0.00       0.00      25.82       0.00      25.82        4.03     0.53   0.998
  SC06                      55.12       0.00       0.00       0.00      54.93       0.00      54.93       17.88     1.52   0.997
  SC07                      23.58       0.00       0.00       0.00      23.47       0.00      23.47        1.11     0.11   0.995
  SC08                      45.96       0.00       0.00       0.00      45.94       0.00      45.94       12.86     1.94   1.000
  SC09                      55.12       0.00       0.00       0.00      55.04       0.00      55.04        3.80     0.38   0.999
  SC010                     25.86       0.00       0.00       0.00      25.80       0.00      25.80        3.03     0.38   0.998
  
  
  ******************
  Node Depth Summary
  ******************
  
  ---------------------------------------------------------------------------------
                                 Average  Maximum  Maximum  Time of Max    Reported
                                   Depth    Depth      HGL   Occurrence   Max Depth
  Node                 Type       Meters   Meters   Meters  days hr:min      Meters
  ---------------------------------------------------------------------------------
  J1                   JUNCTION     0.07     0.23    34.23     0  03:56        0.23
  J3                   JUNCTION     0.10     0.12    18.12     0  03:51        0.12
  CSO7                 JUNCTION     0.13     1.20    35.20     0  03:30        1.20
  J5                   JUNCTION     0.06     0.16    32.16     0  04:02        0.16
  CSO9                 JUNCTION     0.38     2.00    42.00     0  07:10        2.00
  J8                   JUNCTION     0.15     0.41    36.41     0  08:32        0.41
  CSO8                 JUNCTION     0.35     2.00    34.00     0  03:21        2.00
  J10                  JUNCTION     0.12     0.41    29.41     0  08:07        0.41
  J13                  JUNCTION     0.06     0.21    29.21     0  04:01        0.21
  J15                  JUNCTION     0.18     0.38    15.38     0  04:03        0.38
  J16                  JUNCTION     0.07     0.25    30.25     0  03:56        0.25
  CSO10                JUNCTION     0.15     1.00    31.00     0  00:21        1.00
  J12                  JUNCTION     0.83     1.11    27.11     0  08:04        1.11
  J4                   JUNCTION     0.13     1.22    34.22     0  03:33        0.78
  J6                   JUNCTION     0.07     0.07    25.07     0  05:04        0.07
  J2                   JUNCTION     0.07     0.08    25.08     0  04:24        0.08
  J19                  JUNCTION     0.15     0.17     8.17     0  03:08        0.17
  J9                   JUNCTION     0.10     0.11    29.11     0  05:42        0.11
  J14                  JUNCTION     0.10     0.12    20.12     0  03:50        0.12
  J17                  JUNCTION     0.07     0.08    20.08     0  05:06        0.08
  J7                   JUNCTION     0.11     0.23    39.23     0  09:12        0.23
  J11                  JUNCTION     0.13     0.30    31.30     0  08:53        0.30
  J18                  JUNCTION     0.06     0.16    29.16     0  04:09        0.16
  Out_to_WWTP          OUTFALL      0.15     0.17     6.17     0  09:36        0.17
  T5                   STORAGE      3.90     5.00    32.00     0  03:22        5.00
  T4                   STORAGE      3.88     5.00    32.00     0  03:48        5.00
  T6                   STORAGE      4.27     5.00    36.00     0  03:57        5.00
  T3                   STORAGE      4.21     5.00    27.00     0  05:04        5.00
  T2                   STORAGE      4.15     5.00    26.00     0  03:45        5.00
  T1                   STORAGE      3.56     5.00    15.00     0  03:07        5.00
  
  
  *******************
  Node Inflow Summary
  *******************
  
  -------------------------------------------------------------------------------------------------
                                  Maximum  Maximum                  Lateral       Total        Flow
                                  Lateral    Total  Time of Max      Inflow      Inflow     Balance
                                   Inflow   Inflow   Occurrence      Volume      Volume       Error
  Node                 Type           CMS      CMS  days hr:min    10^6 ltr    10^6 ltr     Percent
  -------------------------------------------------------------------------------------------------
  J1                   JUNCTION     0.534    0.534     0  03:56        5.12        5.12      -0.089
  J3                   JUNCTION     0.000    0.134     0  03:50           0         9.5       0.281
  CSO7                 JUNCTION     0.118    0.118     0  04:01        1.68        1.68       0.004
  J5                   JUNCTION     0.167    0.238     0  04:01        1.87         3.5      -0.056
  CSO9                 JUNCTION     0.390    0.390     0  08:31        4.18        4.18      -0.016
  J8                   JUNCTION     1.547    1.674     0  08:31        19.7        23.3      -0.010
  CSO8                 JUNCTION     1.950    1.950     0  08:11        13.3        13.3      -0.035
  J10                  JUNCTION     1.787    2.262     0  08:06        9.05        20.1      -0.064
  J13                  JUNCTION     0.659    0.659     0  04:01        6.26        6.26      -0.168
  J15                  JUNCTION     0.000    1.402     0  03:56           0        24.7       0.228
  J16                  JUNCTION     1.153    1.153     0  03:56         9.6         9.6      -0.086
  CSO10                JUNCTION     0.377    0.377     0  03:56         3.3         3.3      -0.028
  J12                  JUNCTION     0.000    1.936     0  08:07           0        25.6       3.308
  J4                   JUNCTION     0.000    0.081     0  03:31           0        1.64       0.051
  J6                   JUNCTION     0.000    0.028     0  04:00           0        1.95       0.165
  J2                   JUNCTION     0.000    0.039     0  03:22           0        2.91       0.116
  J19                  JUNCTION     0.000    0.271     0  03:07           0          19       0.043
  J9                   JUNCTION     0.000    0.075     0  04:00           0         5.5       0.284
  J14                  JUNCTION     0.000    0.080     0  03:50           0        4.65       0.096
  J17                  JUNCTION     0.000    0.033     0  04:00           0        2.48       0.282
  J7                   JUNCTION     0.000    0.127     0  09:12           0        3.59       0.037
  J11                  JUNCTION     0.000    0.487     0  08:53           0        11.1       0.036
  J18                  JUNCTION     0.000    0.202     0  04:09           0        3.11      -0.038
  Out_to_WWTP          OUTFALL      0.000    0.271     0  03:08           0          19       0.000
  T5                   STORAGE      0.000    0.492     0  03:56           0        5.13       3.852
  T4                   STORAGE      0.000    0.227     0  04:02           0        3.51       5.000
  T6                   STORAGE      0.000    1.569     0  08:32           0        23.3       2.330
  T3                   STORAGE      0.000    2.229     0  08:08           0        24.8       5.883
  T2                   STORAGE      0.000    0.605     0  04:01           0        6.27      11.485
  T1                   STORAGE      0.000    1.276     0  04:03           0        24.6       1.197
  
  
  **********************
  Node Surcharge Summary
  **********************
  
  Surcharging occurs when water rises above the top of the highest conduit.
  ---------------------------------------------------------------------
                                               Max. Height   Min. Depth
                                   Hours       Above Crown    Below Rim
  Node                 Type      Surcharged         Meters       Meters
  ---------------------------------------------------------------------
  CSO7                 JUNCTION        1.14          0.945        0.000
  CSO9                 JUNCTION        4.52          1.682        0.000
  CSO8                 JUNCTION        3.82          1.547        0.000
  CSO10                JUNCTION        0.98          0.560        0.000
  J4                   JUNCTION        0.97          0.920        0.780
  
  
  *********************
  Node Flooding Summary
  *********************
  
  Flooding refers to all water that overflows a node, whether it ponds or not.
  --------------------------------------------------------------------------
                                                             Total   Maximum
                                 Maximum   Time of Max       Flood    Ponded
                        Hours       Rate    Occurrence      Volume     Depth
  Node                 Flooded       CMS   days hr:min    10^6 ltr    Meters
  --------------------------------------------------------------------------
  CSO7                    0.70     0.046      0  04:01       0.042     0.000
  CSO9                    2.08     0.262      0  08:31       0.594     0.000
  CSO8                    1.86     1.464      0  08:11       2.241     0.000
  CSO10                   0.82     0.175      0  03:56       0.197     0.000
  T5                      5.27     0.452      0  03:56       1.848     0.000
  T4                      6.65     0.199      0  04:02       1.167     0.000
  T6                     15.40     1.493      0  08:32      16.897     0.000
  T3                     16.43     2.169      0  08:08      16.174     0.000
  T2                      6.26     0.572      0  04:01       2.489     0.000
  T1                      4.93     1.005      0  04:03       5.040     0.000
  
  
  **********************
  Storage Volume Summary
  **********************
  
  --------------------------------------------------------------------------------------------------
                         Average     Avg  Evap Exfil       Maximum     Max    Time of Max    Maximum
                          Volume    Pcnt  Pcnt  Pcnt        Volume    Pcnt     Occurrence    Outflow
  Storage Unit           1000 m3    Full  Loss  Loss       1000 m3    Full    days hr:min        CMS
  --------------------------------------------------------------------------------------------------
  T5                       0.390      78     0     0         0.500     100       0  03:22      0.039
  T4                       0.388      78     0     0         0.500     100       0  03:48      0.028
  T6                       0.512      85     0     0         0.600     100       0  03:57      0.075
  T3                       2.187      84     0     0         2.600     100       0  05:04      0.141
  T2                       0.831      83     0     0         1.000     100       0  03:45      0.033
  T1                       0.499      71     0     0         0.700     100       0  03:07      0.271
  
  
  ***********************
  Outfall Loading Summary
  ***********************
  
  -----------------------------------------------------------
                         Flow       Avg       Max       Total
                         Freq      Flow      Flow      Volume
  Outfall Node           Pcnt       CMS       CMS    10^6 ltr
  -----------------------------------------------------------
  Out_to_WWTP           99.56     0.224     0.271      19.042
  -----------------------------------------------------------
  System                99.56     0.224     0.271      19.042
  
  
  ********************
  Link Flow Summary
  ********************
  
  -----------------------------------------------------------------------------
                                 Maximum  Time of Max   Maximum    Max/    Max/
                                  |Flow|   Occurrence   |Veloc|    Full    Full
  Link                 Type          CMS  days hr:min     m/sec    Flow   Depth
  -----------------------------------------------------------------------------
  C1                   CONDUIT     0.039     0  04:08      1.27    0.01    0.10
  C6                   CONDUIT     0.071     0  04:02      1.28    1.14    0.77
  C2                   CONDUIT     0.028     0  04:51      1.05    0.03    0.16
  C9                   CONDUIT     0.127     0  09:12      1.27    0.43    0.64
  C16                  CONDUIT     0.489     0  07:16      1.81    0.05    0.18
  C3                   CONDUIT     0.080     0  03:50      1.52    0.03    0.12
  C19                  CONDUIT     0.033     0  05:06      0.69    0.01    0.23
  C11                  CONDUIT     0.132     0  03:51      1.44    0.01    0.12
  C20                  CONDUIT     1.052     0  03:56      4.69    0.03    0.16
  C22                  CONDUIT     0.202     0  04:09      1.61    0.09    0.34
  C12                  CONDUIT     0.075     0  05:42      0.66    0.01    0.31
  C17                  CONDUIT     1.861     0  08:07      2.90    0.09    0.37
  C10                  CONDUIT     1.569     0  08:32      1.66    0.16    0.64
  C13                  CONDUIT     2.229     0  08:08      1.69    0.13    0.78
  C18                  CONDUIT     0.605     0  04:01      2.88    0.02    0.55
  C23                  CONDUIT     1.276     0  04:03      2.70    0.14    0.63
  C4                   CONDUIT     0.492     0  03:56      3.58    0.12    0.62
  C7                   CONDUIT     0.227     0  04:02      1.87    0.06    0.58
  C14                  CONDUIT     0.271     0  03:08      2.08    0.02    0.09
  C5                   CONDUIT     0.081     0  03:31      1.59    1.39    1.00
  C8                   CONDUIT     0.127     0  09:12      1.88    1.60    0.86
  C15                  CONDUIT     0.487     0  08:53      3.97    1.55    0.83
  C21                  CONDUIT     0.202     0  04:09      1.88    1.16    0.69
  V4                   ORIFICE     0.028     0  04:00                      0.35
  V5                   ORIFICE     0.039     0  03:22                      1.00
  V1                   ORIFICE     0.271     0  03:07                      1.00
  V6                   ORIFICE     0.075     0  04:00                      0.43
  V3                   ORIFICE     0.080     0  03:50                      0.65
  V2                   ORIFICE     0.033     0  04:00                      0.24
  
  
  ***************************
  Flow Classification Summary
  ***************************
  
  -------------------------------------------------------------------------------------
                      Adjusted    ---------- Fraction of Time in Flow Class ---------- 
                       /Actual         Up    Down  Sub   Sup   Up    Down  Norm  Inlet 
  Conduit               Length    Dry  Dry   Dry   Crit  Crit  Crit  Crit  Ltd   Ctrl  
  -------------------------------------------------------------------------------------
  C1                      1.00   0.00  0.00  0.00  0.00  1.00  0.00  0.00  0.97  0.00
  C6                      1.00   0.00  0.00  0.00  0.08  0.92  0.00  0.00  0.00  0.00
  C2                      1.00   0.00  0.00  0.00  0.16  0.83  0.00  0.00  1.00  0.00
  C9                      1.00   0.00  0.00  0.00  1.00  0.00  0.00  0.00  1.00  0.00
  C16                     1.00   0.00  0.00  0.00  0.32  0.68  0.00  0.00  0.34  0.00
  C3                      1.00   0.00  0.00  0.00  0.05  0.95  0.00  0.00  0.91  0.00
  C19                     1.00   0.00  0.00  0.00  1.00  0.00  0.00  0.00  1.00  0.00
  C11                     1.00   0.00  0.00  0.00  0.25  0.75  0.00  0.00  1.00  0.00
  C20                     1.00   0.00  0.00  0.00  0.64  0.36  0.00  0.00  0.99  0.00
  C22                     1.00   0.00  0.00  0.00  0.83  0.17  0.00  0.00  1.00  0.00
  C12                     1.00   0.00  0.00  0.00  1.00  0.00  0.00  0.00  1.00  0.00
  C17                     1.00   0.00  0.00  0.00  0.80  0.20  0.00  0.00  0.97  0.00
  C10                     1.00   0.00  0.00  0.00  0.98  0.02  0.00  0.00  0.99  0.00
  C13                     1.00   0.00  0.00  0.00  0.96  0.04  0.00  0.00  0.17  0.00
  C18                     1.00   0.00  0.00  0.00  0.98  0.02  0.00  0.00  0.99  0.00
  C23                     1.00   0.00  0.00  0.00  0.99  0.01  0.00  0.00  0.99  0.00
  C4                      1.00   0.00  0.00  0.00  0.99  0.01  0.00  0.00  0.99  0.00
  C7                      1.00   0.00  0.00  0.00  0.98  0.02  0.00  0.00  0.99  0.00
  C14                     1.00   0.00  0.00  0.00  0.00  1.00  0.00  0.00  0.52  0.00
  C5                      1.00   0.00  0.00  0.00  0.93  0.07  0.00  0.00  0.92  0.00
  C8                      1.00   0.00  0.00  0.00  0.34  0.66  0.00  0.00  0.00  0.00
  C15                     1.00   0.00  0.00  0.00  0.00  1.00  0.00  0.00  0.00  0.00
  C21                     1.00   0.00  0.00  0.00  0.00  1.00  0.00  0.00  0.00  0.00
  
  
  *************************
  Conduit Surcharge Summary
  *************************
  
  ----------------------------------------------------------------------------
                                                           Hours        Hours 
                         --------- Hours Full --------   Above Full   Capacity
  Conduit                Both Ends  Upstream  Dnstream   Normal Flow   Limited
  ----------------------------------------------------------------------------
  C6                          0.01      0.97      0.01      0.80         0.01
  C10                         0.01      0.01     21.00      0.01         0.01
  C13                         0.01      0.01     19.88      0.01         0.01
  C18                         0.01      0.01     21.25      0.01         0.01
  C23                         0.01      0.01     23.19      0.01         0.01
  C4                          0.01      0.01     23.25      0.01         0.01
  C7                          0.01      0.01     22.77      0.01         0.01
  C5                          1.11      1.14      1.36      1.24         1.04
  C8                          0.01      4.52      0.01      4.53         0.01
  C15                         0.01      3.83      0.01      4.29         0.01
  C21                         0.01      0.98      0.01      0.96         0.01
  

  Analysis begun on:  Mon Sep 20 21:34:07 2021
  Analysis ended on:  Mon Sep 20 21:34:07 2021
  Total elapsed time: < 1 sec