
  EPA STORM WATER MANAGEMENT MODEL - VERSION 5.1 (Build 5.3.0.dev0)
  --------------------------------------------------------------

  WARNING 09: time series interval greater than recording interval for Rain Gage RG1
  WARNING 09: time series interval greater than recording interval for Rain Gage RG2
  WARNING 09: time series interval greater than recording interval for Rain Gage RG3
  WARNING 09: time series interval greater than recording interval for Rain Gage RG4
  
  *********************************************************
  NOTE: The summary statistics displayed in this report are
  based on results found at every computational time step,  
  not just on results from each reporting time step.
  *********************************************************
  
  ****************
  Analysis Options
  ****************
  Flow Units ............... CMS
  Process Models:
    Rainfall/Runoff ........ YES
    RDII ................... NO
    Snowmelt ............... NO
    Groundwater ............ NO
    Flow Routing ........... YES
    Ponding Allowed ........ YES
    Water Quality .......... NO
  Infiltration Method ...... HORTON
  Flow Routing Method ...... DYNWAVE
  Surcharge Method ......... EXTRAN
  Starting Date ............ 08/28/2015 00:00:00
  Ending Date .............. 08/28/2015 23:40:00
  Antecedent Dry Days ...... 0.0
  Report Time Step ......... 00:01:00
  Wet Time Step ............ 00:01:00
  Dry Time Step ............ 00:01:00
  Routing Time Step ........ 5.00 sec
  Variable Time Step ....... YES
  Maximum Trials ........... 8
  Number of Threads ........ 1
  Head Tolerance ........... 0.001500 m
  
  
  **************************        Volume         Depth
  Runoff Quantity Continuity     hectare-m            mm
  **************************     ---------       -------
  Total Precipitation ......         4.472        24.815
  Evaporation Loss .........         0.000         0.000
  Infiltration Loss ........         0.000         0.000
  Surface Runoff ...........         4.468        24.794
  Final Storage ............         0.013         0.069
  Continuity Error (%) .....        -0.197
  
  
  **************************        Volume        Volume
  Flow Routing Continuity        hectare-m      10^6 ltr
  **************************     ---------     ---------
  Dry Weather Inflow .......         0.758         7.576
  Wet Weather Inflow .......         4.468        44.680
  Groundwater Inflow .......         0.000         0.000
  RDII Inflow ..............         0.000         0.000
  External Inflow ..........         0.000         0.000
  External Outflow .........         1.550        15.496
  Flooding Loss ............         2.954        29.538
  Evaporation Loss .........         0.000         0.000
  Exfiltration Loss ........         0.000         0.000
  Initial Stored Volume ....         0.000         0.000
  Final Stored Volume ......         0.610         6.099
  Continuity Error (%) .....         2.149
  
  
  *************************
  Highest Continuity Errors
  *************************
  Node T2 (11.60%)
  Node T3 (7.73%)
  Node T4 (6.17%)
  Node T5 (3.09%)
  Node J12 (2.27%)
  
  
  ***************************
  Time-Step Critical Elements
  ***************************
  None
  
  
  ********************************
  Highest Flow Instability Indexes
  ********************************
  All links are stable.
  
  
  *************************
  Routing Time Step Summary
  *************************
  Minimum Time Step           :     4.50 sec
  Average Time Step           :     5.00 sec
  Maximum Time Step           :     5.00 sec
  Percent in Steady State     :     0.00
  Average Iterations per Step :     2.23
  Percent Not Converging      :     0.87
  
  
  ***************************
  Subcatchment Runoff Summary
  ***************************
  
  ------------------------------------------------------------------------------------------------------------------------------
                            Total      Total      Total      Total     Imperv       Perv      Total       Total     Peak  Runoff
                           Precip      Runon       Evap      Infil     Runoff     Runoff     Runoff      Runoff   Runoff   Coeff
  Subcatchment                 mm         mm         mm         mm         mm         mm         mm    10^6 ltr      CMS
  ------------------------------------------------------------------------------------------------------------------------------
  SC01                      22.91       0.00       0.00       0.00      22.91       0.00      22.91        7.56     3.11   1.000
  SC02                      21.67       0.00       0.00       0.00      21.67       0.00      21.67        4.93     2.53   1.000
  SC03                      29.37       0.00       0.00       0.00      29.44       0.00      29.44        5.30     1.50   1.002
  SC04                      21.67       0.00       0.00       0.00      21.61       0.00      21.61        1.49     0.44   0.997
  SC05                      22.91       0.00       0.00       0.00      22.90       0.00      22.90        3.57     1.38   1.000
  SC06                      25.16       0.00       0.00       0.00      25.08       0.00      25.08        8.16     1.18   0.997
  SC07                      21.67       0.00       0.00       0.00      21.61       0.00      21.61        1.03     0.30   0.997
  SC08                      29.37       0.00       0.00       0.00      29.35       0.00      29.35        8.22     1.78   0.999
  SC09                      25.16       0.00       0.00       0.00      25.11       0.00      25.11        1.73     0.28   0.998
  SC010                     22.91       0.00       0.00       0.00      22.88       0.00      22.88        2.69     0.90   0.999
  
  
  ******************
  Node Depth Summary
  ******************
  
  ---------------------------------------------------------------------------------
                                 Average  Maximum  Maximum  Time of Max    Reported
                                   Depth    Depth      HGL   Occurrence   Max Depth
  Node                 Type       Meters   Meters   Meters  days hr:min      Meters
  ---------------------------------------------------------------------------------
  J1                   JUNCTION     0.06     0.38    34.38     0  06:36        0.38
  J3                   JUNCTION     0.10     0.13    18.13     0  20:59        0.13
  CSO7                 JUNCTION     0.13     1.20    35.20     0  06:20        1.20
  J5                   JUNCTION     0.05     0.23    32.23     0  06:32        0.23
  CSO9                 JUNCTION     0.23     2.00    42.00     0  04:35        2.00
  J8                   JUNCTION     0.10     0.36    36.36     0  06:47        0.36
  CSO8                 JUNCTION     0.24     2.00    34.00     0  04:15        2.00
  J10                  JUNCTION     0.08     0.38    29.38     0  06:22        0.38
  J13                  JUNCTION     0.05     0.40    29.40     0  06:31        0.39
  J15                  JUNCTION     0.16     0.52    15.52     0  06:39        0.52
  J16                  JUNCTION     0.06     0.41    30.41     0  06:36        0.40
  CSO10                JUNCTION     0.13     1.00    31.00     0  04:06        1.00
  J12                  JUNCTION     0.75     1.11    27.11     0  06:25        1.11
  J4                   JUNCTION     0.12     1.44    34.44     0  06:22        0.80
  J6                   JUNCTION     0.06     0.07    25.07     0  07:49        0.07
  J2                   JUNCTION     0.06     0.08    25.08     0  07:06        0.08
  J19                  JUNCTION     0.13     0.17     8.17     0  04:45        0.17
  J9                   JUNCTION     0.09     0.11    29.11     0  07:05        0.11
  J14                  JUNCTION     0.10     0.15    20.15     0  20:51        0.15
  J17                  JUNCTION     0.06     0.08    20.08     0  07:39        0.08
  J7                   JUNCTION     0.07     0.23    39.23     0  07:19        0.23
  J11                  JUNCTION     0.08     0.30    31.30     0  07:12        0.30
  J18                  JUNCTION     0.05     0.16    29.16     0  07:08        0.16
  Out_to_WWTP          OUTFALL      0.13     0.17     6.17     0  06:14        0.17
  T5                   STORAGE      3.07     5.00    32.00     0  06:19        5.00
  T4                   STORAGE      3.25     5.00    32.00     0  06:37        5.00
  T6                   STORAGE      3.14     5.00    36.00     0  04:58        5.00
  T3                   STORAGE      3.98     5.00    27.00     0  06:22        5.00
  T2                   STORAGE      3.51     5.00    26.00     0  06:32        5.00
  T1                   STORAGE      2.77     5.00    15.00     0  04:44        5.00
  
  
  *******************
  Node Inflow Summary
  *******************
  
  -------------------------------------------------------------------------------------------------
                                  Maximum  Maximum                  Lateral       Total        Flow
                                  Lateral    Total  Time of Max      Inflow      Inflow     Balance
                                   Inflow   Inflow   Occurrence      Volume      Volume       Error
  Node                 Type           CMS      CMS  days hr:min    10^6 ltr    10^6 ltr     Percent
  -------------------------------------------------------------------------------------------------
  J1                   JUNCTION     1.398    1.398     0  06:36        4.67        4.67      -0.052
  J3                   JUNCTION     0.000    0.162     0  20:51           0         9.1       0.359
  CSO7                 JUNCTION     0.309    0.309     0  06:31        1.59        1.59       0.008
  J5                   JUNCTION     0.441    0.515     0  06:31        1.74        3.08      -0.031
  CSO9                 JUNCTION     0.282    0.282     0  06:46        2.11        2.11      -0.008
  J8                   JUNCTION     1.204    1.332     0  06:46        9.99        11.8      -0.029
  CSO8                 JUNCTION     1.791    1.791     0  06:36        8.67        8.67      -0.017
  J10                  JUNCTION     1.513    1.998     0  06:21        6.05        12.4      -0.089
  J13                  JUNCTION     2.540    2.540     0  06:31        5.84        5.84      -0.119
  J15                  JUNCTION     0.000    3.289     0  06:36           0        22.1       0.310
  J16                  JUNCTION     3.122    3.122     0  06:36        8.64        8.64      -0.063
  CSO10                JUNCTION     0.899    0.899     0  06:36        2.96        2.96      -0.025
  J12                  JUNCTION     0.000    1.691     0  06:22           0        16.9       2.320
  J4                   JUNCTION     0.000    0.083     0  06:21           0        1.35       0.060
  J6                   JUNCTION     0.000    0.028     0  06:37           0        1.62       0.139
  J2                   JUNCTION     0.000    0.039     0  06:19           0        2.39       0.148
  J19                  JUNCTION     0.000    0.271     0  04:44           0        15.5       0.058
  J9                   JUNCTION     0.000    0.075     0  05:20           0        4.45       0.216
  J14                  JUNCTION     0.000    0.123     0  20:50           0        5.11       0.141
  J17                  JUNCTION     0.000    0.033     0  06:32           0        1.95       0.198
  J7                   JUNCTION     0.000    0.127     0  07:19           0        1.77       0.045
  J11                  JUNCTION     0.000    0.487     0  07:12           0        6.38       0.037
  J18                  JUNCTION     0.000    0.202     0  07:08           0        2.39      -0.040
  Out_to_WWTP          OUTFALL      0.000    0.271     0  04:45           0        15.5       0.000
  T5                   STORAGE      0.000    1.282     0  06:36           0        4.67       3.190
  T4                   STORAGE      0.000    0.468     0  06:32           0        3.08       6.580
  T6                   STORAGE      0.000    1.259     0  06:47           0        11.8       1.764
  T3                   STORAGE      0.000    2.208     0  06:29           0        16.5       8.378
  T2                   STORAGE      0.000    2.298     0  06:31           0        5.85      13.117
  T1                   STORAGE      0.000    2.363     0  06:39           0          22       1.646
  
  
  **********************
  Node Surcharge Summary
  **********************
  
  Surcharging occurs when water rises above the top of the highest conduit.
  ---------------------------------------------------------------------
                                               Max. Height   Min. Depth
                                   Hours       Above Crown    Below Rim
  Node                 Type      Surcharged         Meters       Meters
  ---------------------------------------------------------------------
  CSO7                 JUNCTION        1.35          0.945        0.000
  CSO9                 JUNCTION        2.29          1.682        0.000
  CSO8                 JUNCTION        2.38          1.547        0.000
  CSO10                JUNCTION        1.26          0.560        0.000
  J4                   JUNCTION        1.32          1.139        0.561
  
  
  *********************
  Node Flooding Summary
  *********************
  
  Flooding refers to all water that overflows a node, whether it ponds or not.
  --------------------------------------------------------------------------
                                                             Total   Maximum
                                 Maximum   Time of Max       Flood    Ponded
                        Hours       Rate    Occurrence      Volume     Depth
  Node                 Flooded       CMS   days hr:min    10^6 ltr    Meters
  --------------------------------------------------------------------------
  CSO7                    0.98     0.236      0  06:31       0.245     0.000
  CSO9                    1.50     0.155      0  06:46       0.342     0.000
  CSO8                    1.65     1.304      0  06:36       2.288     0.000
  CSO10                   0.98     0.696      0  06:36       0.566     0.000
  T5                      2.70     1.242      0  06:36       1.997     0.000
  T4                      4.62     0.424      0  06:37       1.022     0.000
  T6                      6.35     1.184      0  06:47       6.983     0.000
  T3                     13.86     2.147      0  06:29       7.733     0.000
  T2                      4.75     1.922      0  06:32       2.513     0.000
  T1                      3.49     2.093      0  06:39       5.847     0.000
  
  
  **********************
  Storage Volume Summary
  **********************
  
  --------------------------------------------------------------------------------------------------
                         Average     Avg  Evap Exfil       Maximum     Max    Time of Max    Maximum
                          Volume    Pcnt  Pcnt  Pcnt        Volume    Pcnt     Occurrence    Outflow
  Storage Unit           1000 m3    Full  Loss  Loss       1000 m3    Full    days hr:min        CMS
  --------------------------------------------------------------------------------------------------
  T5                       0.307      61     0     0         0.500     100       0  06:19      0.039
  T4                       0.325      65     0     0         0.500     100       0  06:37      0.028
  T6                       0.377      63     0     0         0.600     100       0  04:58      0.075
  T3                       2.067      80     0     0         2.600     100       0  06:22      0.138
  T2                       0.702      70     0     0         1.000     100       0  06:32      0.033
  T1                       0.388      55     0     0         0.700     100       0  04:44      0.271
  
  
  ***********************
  Outfall Loading Summary
  ***********************
  
  -----------------------------------------------------------
                         Flow       Avg       Max       Total
                         Freq      Flow      Flow      Volume
  Outfall Node           Pcnt       CMS       CMS    10^6 ltr
  -----------------------------------------------------------
  Out_to_WWTP           99.43     0.183     0.271      15.496
  -----------------------------------------------------------
  System                99.43     0.183     0.271      15.496
  
  
  ********************
  Link Flow Summary
  ********************
  
  -----------------------------------------------------------------------------
                                 Maximum  Time of Max   Maximum    Max/    Max/
                                  |Flow|   Occurrence   |Veloc|    Full    Full
  Link                 Type          CMS  days hr:min     m/sec    Flow   Depth
  -----------------------------------------------------------------------------
  C1                   CONDUIT     0.039     0  07:06      1.04    0.01    0.10
  C6                   CONDUIT     0.075     0  06:31      1.28    1.19    0.88
  C2                   CONDUIT     0.028     0  07:27      1.00    0.03    0.16
  C9                   CONDUIT     0.127     0  07:20      1.29    0.43    0.60
  C16                  CONDUIT     0.487     0  04:31      1.81    0.05    0.17
  C3                   CONDUIT     0.124     0  20:52      1.88    0.05    0.14
  C19                  CONDUIT     0.033     0  07:39      0.69    0.01    0.30
  C11                  CONDUIT     0.161     0  20:59      1.72    0.01    0.16
  C20                  CONDUIT     2.929     0  06:36      6.00    0.09    0.22
  C22                  CONDUIT     0.202     0  07:07      1.60    0.09    0.43
  C12                  CONDUIT     0.075     0  07:05      0.50    0.01    0.31
  C17                  CONDUIT     1.616     0  06:22      3.53    0.08    0.37
  C10                  CONDUIT     1.259     0  06:47      1.09    0.13    0.62
  C13                  CONDUIT     2.208     0  06:29      2.66    0.13    0.78
  C18                  CONDUIT     2.298     0  06:31      1.76    0.09    0.60
  C23                  CONDUIT     2.363     0  06:39      1.91    0.26    0.67
  C4                   CONDUIT     1.282     0  06:36      2.21    0.31    0.69
  C7                   CONDUIT     0.468     0  06:32      0.92    0.12    0.61
  C14                  CONDUIT     0.271     0  04:45      2.08    0.02    0.09
  C5                   CONDUIT     0.083     0  06:21      1.61    1.41    1.00
  C8                   CONDUIT     0.127     0  07:19      1.83    1.60    0.86
  C15                  CONDUIT     0.487     0  07:12      3.57    1.55    0.83
  C21                  CONDUIT     0.202     0  07:08      1.91    1.16    0.69
  V4                   ORIFICE     0.028     0  06:37                      0.35
  V5                   ORIFICE     0.039     0  06:19                      1.00
  V1                   ORIFICE     0.271     0  04:44                      1.00
  V6                   ORIFICE     0.075     0  05:20                      0.43
  V3                   ORIFICE     0.123     0  20:50                      0.65
  V2                   ORIFICE     0.033     0  06:32                      0.24
  
  
  ***************************
  Flow Classification Summary
  ***************************
  
  -------------------------------------------------------------------------------------
                      Adjusted    ---------- Fraction of Time in Flow Class ---------- 
                       /Actual         Up    Down  Sub   Sup   Up    Down  Norm  Inlet 
  Conduit               Length    Dry  Dry   Dry   Crit  Crit  Crit  Crit  Ltd   Ctrl  
  -------------------------------------------------------------------------------------
  C1                      1.00   0.00  0.00  0.00  0.15  0.85  0.00  0.00  0.96  0.00
  C6                      1.00   0.00  0.00  0.00  0.07  0.93  0.00  0.00  0.00  0.00
  C2                      1.00   0.00  0.00  0.00  0.31  0.69  0.00  0.00  0.98  0.00
  C9                      1.00   0.00  0.00  0.00  1.00  0.00  0.00  0.00  1.00  0.00
  C16                     1.00   0.00  0.13  0.00  0.53  0.33  0.00  0.00  0.46  0.00
  C3                      1.00   0.00  0.00  0.00  0.04  0.96  0.00  0.00  0.76  0.00
  C19                     1.00   0.00  0.00  0.00  1.00  0.00  0.00  0.00  1.00  0.00
  C11                     1.00   0.00  0.00  0.00  0.20  0.80  0.00  0.00  1.00  0.00
  C20                     1.00   0.00  0.00  0.00  0.77  0.23  0.00  0.00  0.99  0.00
  C22                     1.00   0.00  0.00  0.00  0.89  0.11  0.00  0.00  1.00  0.00
  C12                     1.00   0.00  0.00  0.00  0.99  0.01  0.00  0.00  0.99  0.00
  C17                     1.00   0.00  0.00  0.00  0.90  0.10  0.00  0.00  0.97  0.00
  C10                     1.00   0.00  0.00  0.00  0.95  0.05  0.00  0.00  0.98  0.00
  C13                     1.00   0.00  0.00  0.00  0.84  0.16  0.00  0.00  0.13  0.00
  C18                     1.00   0.00  0.00  0.00  0.91  0.09  0.00  0.00  0.98  0.00
  C23                     1.00   0.00  0.00  0.00  0.84  0.16  0.00  0.00  0.95  0.00
  C4                      1.00   0.00  0.00  0.00  0.84  0.16  0.00  0.00  0.97  0.00
  C7                      1.00   0.00  0.00  0.00  0.95  0.05  0.00  0.00  0.97  0.00
  C14                     1.00   0.00  0.00  0.00  0.00  1.00  0.00  0.00  0.52  0.00
  C5                      1.00   0.00  0.00  0.00  0.95  0.05  0.00  0.00  0.91  0.00
  C8                      1.00   0.00  0.00  0.00  0.29  0.71  0.00  0.00  0.01  0.00
  C15                     1.00   0.13  0.00  0.00  0.02  0.85  0.00  0.00  0.02  0.00
  C21                     1.00   0.00  0.00  0.00  0.01  0.99  0.00  0.00  0.00  0.00
  
  
  *************************
  Conduit Surcharge Summary
  *************************
  
  ----------------------------------------------------------------------------
                                                           Hours        Hours 
                         --------- Hours Full --------   Above Full   Capacity
  Conduit                Both Ends  Upstream  Dnstream   Normal Flow   Limited
  ----------------------------------------------------------------------------
  C6                          0.01      1.32      0.01      1.14         0.01
  C10                         0.01      0.01     18.05      0.01         0.01
  C13                         0.01      0.01     19.12      0.01         0.01
  C18                         0.01      0.01     18.83      0.01         0.01
  C23                         0.01      0.01     19.49      0.01         0.01
  C4                          0.01      0.01     19.53      0.01         0.01
  C7                          0.01      0.01     19.26      0.01         0.01
  C5                          1.35      1.35      1.46      1.39         1.30
  C8                          0.01      2.29      0.01      2.32         0.01
  C15                         0.01      2.38      0.01      2.45         0.01
  C21                         0.01      1.27      0.01      1.20         0.01
  

  Analysis begun on:  Mon Sep 20 21:39:50 2021
  Analysis ended on:  Mon Sep 20 21:39:51 2021
  Total elapsed time: 00:00:01