
  EPA STORM WATER MANAGEMENT MODEL - VERSION 5.1 (Build 5.3.0.dev0)
  --------------------------------------------------------------

  WARNING 09: time series interval greater than recording interval for Rain Gage RG1
  WARNING 09: time series interval greater than recording interval for Rain Gage RG2
  WARNING 09: time series interval greater than recording interval for Rain Gage RG3
  WARNING 09: time series interval greater than recording interval for Rain Gage RG4
  
  *********************************************************
  NOTE: The summary statistics displayed in this report are
  based on results found at every computational time step,  
  not just on results from each reporting time step.
  *********************************************************
  
  ****************
  Analysis Options
  ****************
  Flow Units ............... CMS
  Process Models:
    Rainfall/Runoff ........ YES
    RDII ................... NO
    Snowmelt ............... NO
    Groundwater ............ NO
    Flow Routing ........... YES
    Ponding Allowed ........ YES
    Water Quality .......... NO
  Infiltration Method ...... HORTON
  Flow Routing Method ...... DYNWAVE
  Surcharge Method ......... EXTRAN
  Starting Date ............ 08/28/2015 00:00:00
  Ending Date .............. 08/28/2015 23:40:00
  Antecedent Dry Days ...... 0.0
  Report Time Step ......... 00:01:00
  Wet Time Step ............ 00:01:00
  Dry Time Step ............ 00:01:00
  Routing Time Step ........ 5.00 sec
  Variable Time Step ....... YES
  Maximum Trials ........... 8
  Number of Threads ........ 1
  Head Tolerance ........... 0.001500 m
  
  
  **************************        Volume         Depth
  Runoff Quantity Continuity     hectare-m            mm
  **************************     ---------       -------
  Total Precipitation ......         2.361        13.105
  Evaporation Loss .........         0.000         0.000
  Infiltration Loss ........         0.000         0.000
  Surface Runoff ...........         2.352        13.053
  Final Storage ............         0.013         0.073
  Continuity Error (%) .....        -0.161
  
  
  **************************        Volume        Volume
  Flow Routing Continuity        hectare-m      10^6 ltr
  **************************     ---------     ---------
  Dry Weather Inflow .......         0.758         7.576
  Wet Weather Inflow .......         2.352        23.521
  Groundwater Inflow .......         0.000         0.000
  RDII Inflow ..............         0.000         0.000
  External Inflow ..........         0.000         0.000
  External Outflow .........         1.629        16.293
  Flooding Loss ............         0.770         7.704
  Evaporation Loss .........         0.000         0.000
  Exfiltration Loss ........         0.000         0.000
  Initial Stored Volume ....         0.000         0.000
  Final Stored Volume ......         0.592         5.923
  Continuity Error (%) .....         3.787
  
  
  *************************
  Highest Continuity Errors
  *************************
  Node T2 (13.25%)
  Node T3 (11.28%)
  Node T4 (5.94%)
  Node T6 (5.48%)
  Node T5 (4.73%)
  
  
  ***************************
  Time-Step Critical Elements
  ***************************
  None
  
  
  ********************************
  Highest Flow Instability Indexes
  ********************************
  All links are stable.
  
  
  *************************
  Routing Time Step Summary
  *************************
  Minimum Time Step           :     4.50 sec
  Average Time Step           :     5.00 sec
  Maximum Time Step           :     5.00 sec
  Percent in Steady State     :     0.00
  Average Iterations per Step :     2.06
  Percent Not Converging      :     0.20
  
  
  ***************************
  Subcatchment Runoff Summary
  ***************************
  
  ------------------------------------------------------------------------------------------------------------------------------
                            Total      Total      Total      Total     Imperv       Perv      Total       Total     Peak  Runoff
                           Precip      Runon       Evap      Infil     Runoff     Runoff     Runoff      Runoff   Runoff   Coeff
  Subcatchment                 mm         mm         mm         mm         mm         mm         mm    10^6 ltr      CMS
  ------------------------------------------------------------------------------------------------------------------------------
  SC01                      12.50       0.00       0.00       0.00      12.46       0.00      12.46        4.11     1.66   0.997
  SC02                      18.35       0.00       0.00       0.00      18.34       0.00      18.34        4.17     2.34   0.999
  SC03                      11.18       0.00       0.00       0.00      11.16       0.00      11.16        2.01     1.11   0.998
  SC04                      18.35       0.00       0.00       0.00      18.28       0.00      18.28        1.26     0.35   0.996
  SC05                      12.50       0.00       0.00       0.00      12.46       0.00      12.46        1.94     0.75   0.997
  SC06                      11.70       0.00       0.00       0.00      11.60       0.00      11.60        3.77     0.65   0.991
  SC07                      18.35       0.00       0.00       0.00      18.28       0.00      18.28        0.87     0.24   0.996
  SC08                      11.18       0.00       0.00       0.00      11.13       0.00      11.13        3.12     1.02   0.995
  SC09                      11.70       0.00       0.00       0.00      11.63       0.00      11.63        0.80     0.19   0.994
  SC010                     12.50       0.00       0.00       0.00      12.45       0.00      12.45        1.46     0.50   0.996
  
  
  ******************
  Node Depth Summary
  ******************
  
  ---------------------------------------------------------------------------------
                                 Average  Maximum  Maximum  Time of Max    Reported
                                   Depth    Depth      HGL   Occurrence   Max Depth
  Node                 Type       Meters   Meters   Meters  days hr:min      Meters
  ---------------------------------------------------------------------------------
  J1                   JUNCTION     0.06     0.28    34.28     0  09:11        0.28
  J3                   JUNCTION     0.10     0.13    18.13     0  20:48        0.13
  CSO7                 JUNCTION     0.12     1.20    35.20     0  09:10        1.20
  J5                   JUNCTION     0.05     0.20    32.20     0  09:12        0.20
  CSO9                 JUNCTION     0.11     2.00    42.00     0  09:00        2.00
  J8                   JUNCTION     0.09     0.28    36.28     0  09:12        0.28
  CSO8                 JUNCTION     0.11     2.00    34.00     0  09:00        2.00
  J10                  JUNCTION     0.07     0.35    29.35     0  09:07        0.35
  J13                  JUNCTION     0.05     0.38    29.38     0  09:11        0.37
  J15                  JUNCTION     0.15     0.42    15.42     0  09:13        0.42
  J16                  JUNCTION     0.05     0.30    30.30     0  09:11        0.30
  CSO10                JUNCTION     0.10     1.00    31.00     0  09:05        1.00
  J12                  JUNCTION     0.60     1.03    27.03     0  10:00        1.03
  J4                   JUNCTION     0.12     1.31    34.31     0  09:13        0.75
  J6                   JUNCTION     0.06     0.07    25.07     0  10:27        0.07
  J2                   JUNCTION     0.07     0.08    25.08     0  10:07        0.08
  J19                  JUNCTION     0.14     0.17     8.17     0  09:15        0.17
  J9                   JUNCTION     0.09     0.11    29.11     0  11:02        0.11
  J14                  JUNCTION     0.11     0.15    20.15     0  20:11        0.15
  J17                  JUNCTION     0.06     0.08    20.08     0  10:23        0.08
  J7                   JUNCTION     0.07     0.23    39.23     0  09:16        0.23
  J11                  JUNCTION     0.07     0.30    31.30     0  09:18        0.30
  J18                  JUNCTION     0.04     0.16    29.16     0  09:22        0.16
  Out_to_WWTP          OUTFALL      0.14     0.17     6.17     0  10:49        0.17
  T5                   STORAGE      2.93     5.00    32.00     0  09:19        5.00
  T4                   STORAGE      3.09     5.00    32.00     0  09:39        5.00
  T6                   STORAGE      3.55     5.00    36.00     0  09:05        5.00
  T3                   STORAGE      3.83     5.00    27.00     0  09:54        5.00
  T2                   STORAGE      3.46     5.00    26.00     0  09:17        5.00
  T1                   STORAGE      2.68     5.00    15.00     0  09:14        5.00
  
  
  *******************
  Node Inflow Summary
  *******************
  
  -------------------------------------------------------------------------------------------------
                                  Maximum  Maximum                  Lateral       Total        Flow
                                  Lateral    Total  Time of Max      Inflow      Inflow     Balance
                                   Inflow   Inflow   Occurrence      Volume      Volume       Error
  Node                 Type           CMS      CMS  days hr:min    10^6 ltr    10^6 ltr     Percent
  -------------------------------------------------------------------------------------------------
  J1                   JUNCTION     0.766    0.766     0  09:11        3.04        3.04      -0.078
  J3                   JUNCTION     0.000    0.171     0  20:44           0        9.61       0.347
  CSO7                 JUNCTION     0.252    0.252     0  09:11        1.43        1.43       0.004
  J5                   JUNCTION     0.356    0.408     0  09:11        1.51        2.72      -0.030
  CSO9                 JUNCTION     0.199    0.199     0  09:06        1.18        1.18      -0.017
  J8                   JUNCTION     0.681    0.798     0  09:06        5.61        6.77      -0.055
  CSO8                 JUNCTION     1.029    1.029     0  09:06        3.56        3.56      -0.022
  J10                  JUNCTION     1.118    1.553     0  09:06        2.76        6.13      -0.174
  J13                  JUNCTION     2.350    2.350     0  09:11        5.08        5.08      -0.131
  J15                  JUNCTION     0.000    1.859     0  09:11           0        18.2       0.373
  J16                  JUNCTION     1.677    1.677     0  09:11        5.19        5.19      -0.084
  CSO10                JUNCTION     0.500    0.500     0  09:11        1.73        1.73      -0.024
  J12                  JUNCTION     0.000    1.379     0  09:07           0        10.9       1.752
  J4                   JUNCTION     0.000    0.085     0  09:11           0        1.21       0.033
  J6                   JUNCTION     0.000    0.028     0  09:39           0        1.73       0.185
  J2                   JUNCTION     0.000    0.039     0  09:19           0        2.47       0.137
  J19                  JUNCTION     0.000    0.271     0  09:14           0        16.3       0.058
  J9                   JUNCTION     0.000    0.075     0  09:10           0        4.62       0.091
  J14                  JUNCTION     0.000    0.123     0  20:10           0        5.43       0.128
  J17                  JUNCTION     0.000    0.033     0  09:20           0        1.85       0.216
  J7                   JUNCTION     0.000    0.127     0  09:16           0        1.16       0.076
  J11                  JUNCTION     0.000    0.486     0  09:17           0        3.38       0.047
  J18                  JUNCTION     0.000    0.202     0  09:22           0        1.61      -0.036
  Out_to_WWTP          OUTFALL      0.000    0.271     0  09:16           0        16.3       0.000
  T5                   STORAGE      0.000    0.708     0  09:11           0        3.04       4.963
  T4                   STORAGE      0.000    0.373     0  09:12           0        2.72       6.315
  T6                   STORAGE      0.000    0.754     0  09:12           0        6.77       5.798
  T3                   STORAGE      0.000    1.194     0  09:10           0        10.7      12.718
  T2                   STORAGE      0.000    2.129     0  09:11           0        5.09      15.271
  T1                   STORAGE      0.000    1.569     0  09:13           0        18.2       2.170
  
  
  **********************
  Node Surcharge Summary
  **********************
  
  Surcharging occurs when water rises above the top of the highest conduit.
  ---------------------------------------------------------------------
                                               Max. Height   Min. Depth
                                   Hours       Above Crown    Below Rim
  Node                 Type      Surcharged         Meters       Meters
  ---------------------------------------------------------------------
  CSO7                 JUNCTION        1.15          0.945        0.000
  CSO9                 JUNCTION        0.40          1.682        0.000
  CSO8                 JUNCTION        0.41          1.547        0.000
  CSO10                JUNCTION        0.34          0.560        0.000
  J4                   JUNCTION        1.13          1.010        0.690
  
  
  *********************
  Node Flooding Summary
  *********************
  
  Flooding refers to all water that overflows a node, whether it ponds or not.
  --------------------------------------------------------------------------
                                                             Total   Maximum
                                 Maximum   Time of Max       Flood    Ponded
                        Hours       Rate    Occurrence      Volume     Depth
  Node                 Flooded       CMS   days hr:min    10^6 ltr    Meters
  --------------------------------------------------------------------------
  CSO7                    1.01     0.168      0  09:11       0.219     0.000
  CSO9                    0.24     0.073      0  09:06       0.025     0.000
  CSO8                    0.25     0.546      0  09:06       0.186     0.000
  CSO10                   0.28     0.298      0  09:11       0.126     0.000
  T5                      1.45     0.342      0  09:19       0.283     0.000
  T4                      2.17     0.294      0  09:47       0.620     0.000
  T6                      2.70     0.678      0  09:12       1.526     0.000
  T3                      9.24     0.505      0  10:02       1.692     0.000
  T2                      2.08     1.215      0  09:17       1.863     0.000
  T1                      1.40     1.277      0  09:14       1.164     0.000
  
  
  **********************
  Storage Volume Summary
  **********************
  
  --------------------------------------------------------------------------------------------------
                         Average     Avg  Evap Exfil       Maximum     Max    Time of Max    Maximum
                          Volume    Pcnt  Pcnt  Pcnt        Volume    Pcnt     Occurrence    Outflow
  Storage Unit           1000 m3    Full  Loss  Loss       1000 m3    Full    days hr:min        CMS
  --------------------------------------------------------------------------------------------------
  T5                       0.293      59     0     0         0.500     100       0  09:19      0.039
  T4                       0.309      62     0     0         0.500     100       0  09:39      0.028
  T6                       0.426      71     0     0         0.600     100       0  09:05      0.075
  T3                       1.991      77     0     0         2.600     100       0  09:54      0.359
  T2                       0.692      69     0     0         1.000     100       0  09:17      0.033
  T1                       0.375      54     0     0         0.700     100       0  09:14      0.271
  
  
  ***********************
  Outfall Loading Summary
  ***********************
  
  -----------------------------------------------------------
                         Flow       Avg       Max       Total
                         Freq      Flow      Flow      Volume
  Outfall Node           Pcnt       CMS       CMS    10^6 ltr
  -----------------------------------------------------------
  Out_to_WWTP           99.45     0.192     0.271      16.293
  -----------------------------------------------------------
  System                99.45     0.192     0.271      16.293
  
  
  ********************
  Link Flow Summary
  ********************
  
  -----------------------------------------------------------------------------
                                 Maximum  Time of Max   Maximum    Max/    Max/
                                  |Flow|   Occurrence   |Veloc|    Full    Full
  Link                 Type          CMS  days hr:min     m/sec    Flow   Depth
  -----------------------------------------------------------------------------
  C1                   CONDUIT     0.039     0  10:07      1.06    0.01    0.10
  C6                   CONDUIT     0.074     0  09:16      1.29    1.17    0.84
  C2                   CONDUIT     0.028     0  10:27      1.00    0.03    0.16
  C9                   CONDUIT     0.127     0  09:16      1.30    0.43    0.51
  C16                  CONDUIT     0.485     0  09:14      1.78    0.05    0.16
  C3                   CONDUIT     0.124     0  20:12      1.87    0.05    0.14
  C19                  CONDUIT     0.033     0  10:23      0.69    0.01    0.24
  C11                  CONDUIT     0.171     0  20:48      1.73    0.01    0.13
  C20                  CONDUIT     1.534     0  09:11      4.21    0.05    0.18
  C22                  CONDUIT     0.202     0  09:22      1.48    0.09    0.37
  C12                  CONDUIT     0.075     0  11:02      1.09    0.01    0.28
  C17                  CONDUIT     1.329     0  09:07      3.74    0.07    0.30
  C10                  CONDUIT     0.754     0  09:12      1.23    0.08    0.59
  C13                  CONDUIT     1.194     0  09:10      1.91    0.07    0.76
  C18                  CONDUIT     2.129     0  09:11      1.59    0.08    0.60
  C23                  CONDUIT     1.569     0  09:13      1.49    0.17    0.64
  C4                   CONDUIT     0.708     0  09:11      1.46    0.17    0.64
  C7                   CONDUIT     0.373     0  09:12      1.20    0.09    0.60
  C14                  CONDUIT     0.271     0  09:16      2.08    0.02    0.09
  C5                   CONDUIT     0.085     0  09:11      1.67    1.46    1.00
  C8                   CONDUIT     0.127     0  09:16      1.85    1.60    0.86
  C15                  CONDUIT     0.486     0  09:17      3.69    1.55    0.83
  C21                  CONDUIT     0.202     0  09:22      1.85    1.16    0.69
  V4                   ORIFICE     0.028     0  09:39                      0.35
  V5                   ORIFICE     0.039     0  09:19                      1.00
  V1                   ORIFICE     0.271     0  09:14                      1.00
  V6                   ORIFICE     0.075     0  09:10                      0.43
  V3                   ORIFICE     0.123     0  20:10                      0.65
  V2                   ORIFICE     0.033     0  09:20                      0.24
  
  
  ***************************
  Flow Classification Summary
  ***************************
  
  -------------------------------------------------------------------------------------
                      Adjusted    ---------- Fraction of Time in Flow Class ---------- 
                       /Actual         Up    Down  Sub   Sup   Up    Down  Norm  Inlet 
  Conduit               Length    Dry  Dry   Dry   Crit  Crit  Crit  Crit  Ltd   Ctrl  
  -------------------------------------------------------------------------------------
  C1                      1.00   0.00  0.00  0.00  0.19  0.80  0.00  0.00  0.98  0.00
  C6                      1.00   0.00  0.00  0.00  0.07  0.93  0.00  0.00  0.00  0.00
  C2                      1.00   0.00  0.00  0.00  0.29  0.71  0.00  0.00  0.99  0.00
  C9                      1.00   0.00  0.00  0.00  1.00  0.00  0.00  0.00  1.00  0.00
  C16                     1.00   0.00  0.00  0.00  0.64  0.36  0.00  0.00  0.44  0.00
  C3                      1.00   0.00  0.00  0.00  0.01  0.99  0.00  0.00  0.72  0.00
  C19                     1.00   0.00  0.00  0.00  1.00  0.00  0.00  0.00  1.00  0.00
  C11                     1.00   0.00  0.00  0.00  0.16  0.84  0.00  0.00  1.00  0.00
  C20                     1.00   0.00  0.00  0.00  0.74  0.26  0.00  0.00  0.99  0.00
  C22                     1.00   0.00  0.00  0.00  0.89  0.11  0.00  0.00  1.00  0.00
  C12                     1.00   0.00  0.00  0.00  0.82  0.18  0.00  0.00  0.99  0.00
  C17                     1.00   0.00  0.00  0.00  0.74  0.26  0.00  0.00  0.97  0.00
  C10                     1.00   0.00  0.00  0.00  0.98  0.02  0.00  0.00  0.98  0.00
  C13                     1.00   0.00  0.00  0.00  0.97  0.03  0.00  0.00  0.36  0.00
  C18                     1.00   0.00  0.00  0.00  0.98  0.02  0.00  0.00  0.98  0.00
  C23                     1.00   0.00  0.00  0.00  0.97  0.03  0.00  0.00  0.98  0.00
  C4                      1.00   0.00  0.00  0.00  0.98  0.02  0.00  0.00  0.99  0.00
  C7                      1.00   0.00  0.00  0.00  0.97  0.03  0.00  0.00  0.98  0.00
  C14                     1.00   0.00  0.00  0.00  0.00  1.00  0.00  0.00  0.70  0.00
  C5                      1.00   0.00  0.00  0.00  0.90  0.10  0.00  0.00  0.93  0.00
  C8                      1.00   0.00  0.00  0.00  0.10  0.90  0.00  0.00  0.01  0.00
  C15                     1.00   0.00  0.00  0.00  0.02  0.98  0.00  0.00  0.02  0.00
  C21                     1.00   0.00  0.00  0.00  0.00  1.00  0.00  0.00  0.00  0.00
  
  
  *************************
  Conduit Surcharge Summary
  *************************
  
  ----------------------------------------------------------------------------
                                                           Hours        Hours 
                         --------- Hours Full --------   Above Full   Capacity
  Conduit                Both Ends  Upstream  Dnstream   Normal Flow   Limited
  ----------------------------------------------------------------------------
  C6                          0.01      1.13      0.01      1.03         0.01
  C10                         0.01      0.01     22.13      0.01         0.01
  C13                         0.01      0.01     19.99      0.01         0.01
  C18                         0.01      0.01     20.64      0.01         0.01
  C23                         0.01      0.01     22.22      0.01         0.01
  C4                          0.01      0.01     22.27      0.01         0.01
  C7                          0.01      0.01     21.85      0.01         0.01
  C5                          1.13      1.15      1.22      1.17         1.10
  C8                          0.01      0.40      0.01      0.42         0.01
  C15                         0.01      0.41      0.01      0.43         0.01
  C21                         0.01      0.34      0.01      0.32         0.01
  

  Analysis begun on:  Mon Sep 20 22:02:53 2021
  Analysis ended on:  Mon Sep 20 22:02:53 2021
  Total elapsed time: < 1 sec