
  EPA STORM WATER MANAGEMENT MODEL - VERSION 5.1 (Build 5.3.0.dev0)
  --------------------------------------------------------------

  WARNING 09: time series interval greater than recording interval for Rain Gage RG1
  WARNING 09: time series interval greater than recording interval for Rain Gage RG2
  WARNING 09: time series interval greater than recording interval for Rain Gage RG3
  WARNING 09: time series interval greater than recording interval for Rain Gage RG4
  
  *********************************************************
  NOTE: The summary statistics displayed in this report are
  based on results found at every computational time step,  
  not just on results from each reporting time step.
  *********************************************************
  
  ****************
  Analysis Options
  ****************
  Flow Units ............... CMS
  Process Models:
    Rainfall/Runoff ........ YES
    RDII ................... NO
    Snowmelt ............... NO
    Groundwater ............ NO
    Flow Routing ........... YES
    Ponding Allowed ........ YES
    Water Quality .......... NO
  Infiltration Method ...... HORTON
  Flow Routing Method ...... DYNWAVE
  Surcharge Method ......... EXTRAN
  Starting Date ............ 08/28/2015 00:00:00
  Ending Date .............. 08/28/2015 23:40:00
  Antecedent Dry Days ...... 0.0
  Report Time Step ......... 00:01:00
  Wet Time Step ............ 00:01:00
  Dry Time Step ............ 00:01:00
  Routing Time Step ........ 5.00 sec
  Variable Time Step ....... YES
  Maximum Trials ........... 8
  Number of Threads ........ 1
  Head Tolerance ........... 0.001500 m
  
  
  **************************        Volume         Depth
  Runoff Quantity Continuity     hectare-m            mm
  **************************     ---------       -------
  Total Precipitation ......         3.165        17.565
  Evaporation Loss .........         0.000         0.000
  Infiltration Loss ........         0.000         0.000
  Surface Runoff ...........         3.121        17.321
  Final Storage ............         0.046         0.255
  Continuity Error (%) .....        -0.062
  
  
  **************************        Volume        Volume
  Flow Routing Continuity        hectare-m      10^6 ltr
  **************************     ---------     ---------
  Dry Weather Inflow .......         0.758         7.576
  Wet Weather Inflow .......         3.121        31.212
  Groundwater Inflow .......         0.000         0.000
  RDII Inflow ..............         0.000         0.000
  External Inflow ..........         0.000         0.000
  External Outflow .........         1.324        13.242
  Flooding Loss ............         1.460        14.598
  Evaporation Loss .........         0.000         0.000
  Exfiltration Loss ........         0.000         0.000
  Initial Stored Volume ....         0.000         0.000
  Final Stored Volume ......         0.827         8.268
  Continuity Error (%) .....         6.907
  
  
  *************************
  Highest Continuity Errors
  *************************
  Node T2 (18.74%)
  Node T4 (12.16%)
  Node T3 (11.71%)
  Node T5 (10.52%)
  Node T6 (9.27%)
  
  
  ***************************
  Time-Step Critical Elements
  ***************************
  None
  
  
  ********************************
  Highest Flow Instability Indexes
  ********************************
  Link C15 (2)
  Link C20 (1)
  
  
  *************************
  Routing Time Step Summary
  *************************
  Minimum Time Step           :     4.50 sec
  Average Time Step           :     5.00 sec
  Maximum Time Step           :     5.00 sec
  Percent in Steady State     :     0.00
  Average Iterations per Step :     2.00
  Percent Not Converging      :     0.00
  
  
  ***************************
  Subcatchment Runoff Summary
  ***************************
  
  ------------------------------------------------------------------------------------------------------------------------------
                            Total      Total      Total      Total     Imperv       Perv      Total       Total     Peak  Runoff
                           Precip      Runon       Evap      Infil     Runoff     Runoff     Runoff      Runoff   Runoff   Coeff
  Subcatchment                 mm         mm         mm         mm         mm         mm         mm    10^6 ltr      CMS
  ------------------------------------------------------------------------------------------------------------------------------
  SC01                      18.77       0.00       0.00       0.00      18.64       0.00      18.64        6.15     0.44   0.993
  SC02                      17.25       0.00       0.00       0.00      17.10       0.00      17.10        3.89     0.29   0.991
  SC03                      17.22       0.00       0.00       0.00      17.13       0.00      17.13        3.08     0.29   0.995
  SC04                      17.25       0.00       0.00       0.00      16.87       0.00      16.87        1.16     0.07   0.978
  SC05                      18.77       0.00       0.00       0.00      18.62       0.00      18.62        2.91     0.20   0.992
  SC06                      16.40       0.00       0.00       0.00      15.88       0.00      15.88        5.17     0.30   0.968
  SC07                      17.25       0.00       0.00       0.00      16.87       0.00      16.87        0.80     0.05   0.978
  SC08                      17.22       0.00       0.00       0.00      16.99       0.00      16.99        4.76     0.32   0.986
  SC09                      16.40       0.00       0.00       0.00      16.11       0.00      16.11        1.11     0.07   0.982
  SC010                     18.77       0.00       0.00       0.00      18.58       0.00      18.58        2.18     0.14   0.990
  
  
  ******************
  Node Depth Summary
  ******************
  
  ---------------------------------------------------------------------------------
                                 Average  Maximum  Maximum  Time of Max    Reported
                                   Depth    Depth      HGL   Occurrence   Max Depth
  Node                 Type       Meters   Meters   Meters  days hr:min      Meters
  ---------------------------------------------------------------------------------
  J1                   JUNCTION     0.07     0.15    34.15     0  20:41        0.15
  J3                   JUNCTION     0.08     0.11    18.11     0  19:03        0.11
  CSO7                 JUNCTION     0.09     0.20    34.20     0  20:46        0.19
  J5                   JUNCTION     0.06     0.12    32.12     0  20:48        0.12
  CSO9                 JUNCTION     0.09     0.26    40.26     0  20:47        0.26
  J8                   JUNCTION     0.09     0.20    36.20     0  20:47        0.20
  CSO8                 JUNCTION     0.11     0.40    32.40     0  20:41        0.38
  J10                  JUNCTION     0.09     0.21    29.21     0  20:43        0.21
  J13                  JUNCTION     0.06     0.14    29.14     0  20:47        0.14
  J15                  JUNCTION     0.14     0.27    15.27     0  20:44        0.27
  J16                  JUNCTION     0.06     0.16    30.16     0  20:41        0.16
  CSO10                JUNCTION     0.11     0.32    30.32     0  20:41        0.32
  J12                  JUNCTION     0.34     1.03    27.03     0  17:54        1.03
  J4                   JUNCTION     0.10     0.22    33.22     0  20:52        0.22
  J6                   JUNCTION     0.05     0.07    25.07     0  18:26        0.07
  J2                   JUNCTION     0.06     0.08    25.08     0  16:42        0.08
  J19                  JUNCTION     0.12     0.17     8.17     0  15:28        0.17
  J9                   JUNCTION     0.07     0.11    29.11     0  13:30        0.11
  J14                  JUNCTION     0.08     0.12    20.12     0  12:00        0.12
  J17                  JUNCTION     0.05     0.08    20.08     0  18:43        0.08
  J7                   JUNCTION     0.07     0.16    39.16     0  20:49        0.16
  J11                  JUNCTION     0.09     0.23    31.23     0  20:43        0.23
  J18                  JUNCTION     0.05     0.13    29.13     0  20:43        0.13
  Out_to_WWTP          OUTFALL      0.12     0.17     6.17     0  22:05        0.17
  T5                   STORAGE      2.50     5.00    32.00     0  15:59        5.00
  T4                   STORAGE      2.36     5.00    32.00     0  17:40        5.00
  T6                   STORAGE      2.93     5.00    36.00     0  11:42        5.00
  T3                   STORAGE      2.24     5.00    27.00     0  17:52        5.00
  T2                   STORAGE      2.22     5.00    26.00     0  17:47        5.00
  T1                   STORAGE      2.48     5.00    15.00     0  15:27        5.00
  
  
  *******************
  Node Inflow Summary
  *******************
  
  -------------------------------------------------------------------------------------------------
                                  Maximum  Maximum                  Lateral       Total        Flow
                                  Lateral    Total  Time of Max      Inflow      Inflow     Balance
                                   Inflow   Inflow   Occurrence      Volume      Volume       Error
  Node                 Type           CMS      CMS  days hr:min    10^6 ltr    10^6 ltr     Percent
  -------------------------------------------------------------------------------------------------
  J1                   JUNCTION     0.214    0.214     0  20:41           4           4      -0.008
  J3                   JUNCTION     0.000    0.127     0  18:26           0        6.41       0.437
  CSO7                 JUNCTION     0.056    0.056     0  20:46        1.37        1.37       0.019
  J5                   JUNCTION     0.075    0.122     0  20:46        1.41        2.78       0.055
  CSO9                 JUNCTION     0.077    0.077     0  20:46        1.49        1.49       0.019
  J8                   JUNCTION     0.323    0.387     0  20:46           7        8.49       0.084
  CSO8                 JUNCTION     0.321    0.321     0  20:41         5.2         5.2       0.006
  J10                  JUNCTION     0.306    0.516     0  20:41        3.83        9.03      -0.020
  J13                  JUNCTION     0.299    0.299     0  20:46         4.8         4.8      -0.045
  J15                  JUNCTION     0.000    0.700     0  20:42           0        17.4       0.384
  J16                  JUNCTION     0.449    0.449     0  20:41        7.23        7.23      -0.012
  CSO10                JUNCTION     0.145    0.145     0  20:41        2.45        2.45       0.012
  J12                  JUNCTION     0.000    0.565     0  20:43           0        12.6       6.926
  J4                   JUNCTION     0.000    0.054     0  20:46           0        1.37       0.141
  J6                   JUNCTION     0.000    0.028     0  17:40           0        1.25       0.330
  J2                   JUNCTION     0.000    0.039     0  15:59           0        1.98       0.269
  J19                  JUNCTION     0.000    0.271     0  15:27           0        13.3       0.086
  J9                   JUNCTION     0.000    0.075     0  12:10           0        3.61       0.464
  J14                  JUNCTION     0.000    0.076     0  12:00           0        3.19       0.137
  J17                  JUNCTION     0.000    0.033     0  17:47           0        1.38       0.458
  J7                   JUNCTION     0.000    0.073     0  20:47           0        1.49       0.149
  J11                  JUNCTION     0.000    0.315     0  20:41           0         5.2       0.123
  J18                  JUNCTION     0.000    0.138     0  20:41           0        2.45       0.041
  Out_to_WWTP          OUTFALL      0.000    0.271     0  15:28           0        13.2       0.000
  T5                   STORAGE      0.000    0.199     0  20:42           0           4      11.755
  T4                   STORAGE      0.000    0.119     0  20:48           0        2.77      13.843
  T6                   STORAGE      0.000    0.370     0  20:47           0        8.48      10.218
  T3                   STORAGE      0.000    0.673     0  17:58           0        11.8      13.269
  T2                   STORAGE      0.000    0.275     0  20:47           0         4.8      23.065
  T1                   STORAGE      0.000    0.656     0  20:44           0        17.4       3.783
  
  
  **********************
  Node Surcharge Summary
  **********************
  
  No nodes were surcharged.
  
  
  *********************
  Node Flooding Summary
  *********************
  
  Flooding refers to all water that overflows a node, whether it ponds or not.
  --------------------------------------------------------------------------
                                                             Total   Maximum
                                 Maximum   Time of Max       Flood    Ponded
                        Hours       Rate    Occurrence      Volume     Depth
  Node                 Flooded       CMS   days hr:min    10^6 ltr    Meters
  --------------------------------------------------------------------------
  T5                      5.92     0.160      0  20:42       1.176     0.000
  T4                      4.57     0.090      0  20:48       0.726     0.000
  T6                      9.69     0.295      0  20:48       3.532     0.000
  T3                      5.79     0.613      0  17:58       4.630     0.000
  T2                      4.40     0.242      0  20:47       1.569     0.000
  T1                      6.48     0.385      0  20:44       2.964     0.000
  
  
  **********************
  Storage Volume Summary
  **********************
  
  --------------------------------------------------------------------------------------------------
                         Average     Avg  Evap Exfil       Maximum     Max    Time of Max    Maximum
                          Volume    Pcnt  Pcnt  Pcnt        Volume    Pcnt     Occurrence    Outflow
  Storage Unit           1000 m3    Full  Loss  Loss       1000 m3    Full    days hr:min        CMS
  --------------------------------------------------------------------------------------------------
  T5                       0.250      50     0     0         0.500     100       0  15:59      0.039
  T4                       0.236      47     0     0         0.500     100       0  17:40      0.028
  T6                       0.351      59     0     0         0.600     100       0  11:42      0.075
  T3                       1.165      45     0     0         2.600     100       0  17:52      0.076
  T2                       0.444      44     0     0         1.000     100       0  17:47      0.033
  T1                       0.347      50     0     0         0.700     100       0  15:27      0.271
  
  
  ***********************
  Outfall Loading Summary
  ***********************
  
  -----------------------------------------------------------
                         Flow       Avg       Max       Total
                         Freq      Flow      Flow      Volume
  Outfall Node           Pcnt       CMS       CMS    10^6 ltr
  -----------------------------------------------------------
  Out_to_WWTP           99.43     0.156     0.271      13.242
  -----------------------------------------------------------
  System                99.43     0.156     0.271      13.242
  
  
  ********************
  Link Flow Summary
  ********************
  
  -----------------------------------------------------------------------------
                                 Maximum  Time of Max   Maximum    Max/    Max/
                                  |Flow|   Occurrence   |Veloc|    Full    Full
  Link                 Type          CMS  days hr:min     m/sec    Flow   Depth
  -----------------------------------------------------------------------------
  C1                   CONDUIT     0.039     0  16:42      1.05    0.01    0.10
  C6                   CONDUIT     0.051     0  20:53      1.24    0.81    0.56
  C2                   CONDUIT     0.028     0  18:26      1.00    0.03    0.16
  C9                   CONDUIT     0.069     0  20:49      1.07    0.24    0.36
  C16                  CONDUIT     0.286     0  20:43      1.50    0.03    0.11
  C3                   CONDUIT     0.076     0  12:00      1.54    0.03    0.11
  C19                  CONDUIT     0.033     0  18:43      0.71    0.01    0.17
  C11                  CONDUIT     0.127     0  19:02      1.48    0.01    0.10
  C20                  CONDUIT     0.415     0  20:42      2.31    0.01    0.11
  C22                  CONDUIT     0.130     0  20:43      1.30    0.06    0.25
  C12                  CONDUIT     0.075     0  13:30      1.01    0.01    0.28
  C17                  CONDUIT     0.490     0  20:43      2.65    0.02    0.31
  C10                  CONDUIT     0.370     0  20:47      0.94    0.04    0.57
  C13                  CONDUIT     0.673     0  17:58      1.22    0.04    0.76
  C18                  CONDUIT     0.275     0  20:47      1.01    0.01    0.54
  C23                  CONDUIT     0.656     0  20:44      0.85    0.07    0.59
  C4                   CONDUIT     0.199     0  20:42      1.13    0.05    0.57
  C7                   CONDUIT     0.119     0  20:48      0.82    0.03    0.56
  C14                  CONDUIT     0.271     0  15:28      2.08    0.02    0.09
  C5                   CONDUIT     0.054     0  20:46      1.24    0.93    0.80
  C8                   CONDUIT     0.073     0  20:47      1.32    0.92    0.66
  C15                  CONDUIT     0.315     0  20:41      2.79    1.00    0.68
  C21                  CONDUIT     0.138     0  20:41      1.75    0.79    0.51
  V4                   ORIFICE     0.028     0  17:40                      0.35
  V5                   ORIFICE     0.039     0  15:59                      1.00
  V1                   ORIFICE     0.271     0  15:27                      1.00
  V6                   ORIFICE     0.075     0  12:10                      0.43
  V3                   ORIFICE     0.076     0  12:00                      0.65
  V2                   ORIFICE     0.033     0  17:47                      0.24
  
  
  ***************************
  Flow Classification Summary
  ***************************
  
  -------------------------------------------------------------------------------------
                      Adjusted    ---------- Fraction of Time in Flow Class ---------- 
                       /Actual         Up    Down  Sub   Sup   Up    Down  Norm  Inlet 
  Conduit               Length    Dry  Dry   Dry   Crit  Crit  Crit  Crit  Ltd   Ctrl  
  -------------------------------------------------------------------------------------
  C1                      1.00   0.00  0.00  0.00  0.03  0.97  0.00  0.00  0.96  0.00
  C6                      1.00   0.00  0.00  0.00  0.01  0.99  0.00  0.00  0.00  0.00
  C2                      1.00   0.00  0.00  0.00  0.46  0.54  0.00  0.00  0.98  0.00
  C9                      1.00   0.00  0.00  0.00  1.00  0.00  0.00  0.00  1.00  0.00
  C16                     1.00   0.00  0.25  0.00  0.17  0.57  0.00  0.00  0.14  0.00
  C3                      1.00   0.00  0.00  0.00  0.04  0.96  0.00  0.00  0.73  0.00
  C19                     1.00   0.00  0.00  0.00  1.00  0.00  0.00  0.00  1.00  0.00
  C11                     1.00   0.00  0.00  0.00  0.25  0.75  0.00  0.00  1.00  0.00
  C20                     1.00   0.00  0.00  0.00  0.41  0.59  0.00  0.00  0.99  0.00
  C22                     1.00   0.00  0.00  0.00  0.92  0.08  0.00  0.00  1.00  0.00
  C12                     1.00   0.00  0.00  0.00  0.85  0.15  0.00  0.00  0.94  0.00
  C17                     1.00   0.00  0.00  0.00  0.48  0.52  0.00  0.00  0.98  0.00
  C10                     1.00   0.00  0.00  0.00  0.97  0.03  0.00  0.00  0.98  0.00
  C13                     1.00   0.00  0.00  0.00  0.82  0.18  0.00  0.00  0.59  0.00
  C18                     1.00   0.00  0.00  0.00  0.93  0.07  0.00  0.00  0.98  0.00
  C23                     1.00   0.00  0.00  0.00  0.77  0.23  0.00  0.00  0.96  0.00
  C4                      1.00   0.00  0.00  0.00  0.82  0.18  0.00  0.00  0.98  0.00
  C7                      1.00   0.00  0.00  0.00  0.95  0.05  0.00  0.00  0.97  0.00
  C14                     1.00   0.00  0.00  0.00  0.00  1.00  0.00  0.00  0.22  0.00
  C5                      1.00   0.00  0.00  0.00  0.93  0.07  0.00  0.00  0.99  0.00
  C8                      1.00   0.00  0.00  0.00  0.15  0.85  0.00  0.00  0.00  0.00
  C15                     1.00   0.25  0.00  0.00  0.00  0.75  0.00  0.00  0.00  0.00
  C21                     1.00   0.00  0.00  0.00  0.00  1.00  0.00  0.00  0.00  0.00
  
  
  *************************
  Conduit Surcharge Summary
  *************************
  
  ----------------------------------------------------------------------------
                                                           Hours        Hours 
                         --------- Hours Full --------   Above Full   Capacity
  Conduit                Both Ends  Upstream  Dnstream   Normal Flow   Limited
  ----------------------------------------------------------------------------
  C10                         0.01      0.01     13.53      0.01         0.01
  C13                         0.01      0.01     11.38      0.01         0.01
  C18                         0.01      0.01     11.43      0.01         0.01
  C23                         0.01      0.01     13.71      0.01         0.01
  C4                          0.01      0.01     13.99      0.01         0.01
  C7                          0.01      0.01     13.48      0.01         0.01
  C15                         0.01      0.01      0.01      0.01         0.01
  

  Analysis begun on:  Mon Sep 20 22:07:09 2021
  Analysis ended on:  Mon Sep 20 22:07:10 2021
  Total elapsed time: 00:00:01