
  EPA STORM WATER MANAGEMENT MODEL - VERSION 5.1 (Build 5.3.0.dev0)
  --------------------------------------------------------------

  
  *********************************************************
  NOTE: The summary statistics displayed in this report are
  based on results found at every computational time step,  
  not just on results from each reporting time step.
  *********************************************************
  
  ****************
  Analysis Options
  ****************
  Flow Units ............... CMS
  Process Models:
    Rainfall/Runoff ........ YES
    RDII ................... NO
    Snowmelt ............... NO
    Groundwater ............ NO
    Flow Routing ........... YES
    Ponding Allowed ........ YES
    Water Quality .......... NO
  Infiltration Method ...... HORTON
  Flow Routing Method ...... DYNWAVE
  Surcharge Method ......... EXTRAN
  Starting Date ............ 08/28/2015 08:00:00
  Ending Date .............. 08/28/2015 15:50:00
  Antecedent Dry Days ...... 0.0
  Report Time Step ......... 00:01:00
  Wet Time Step ............ 00:01:00
  Dry Time Step ............ 00:01:00
  Routing Time Step ........ 5.00 sec
  Variable Time Step ....... YES
  Maximum Trials ........... 8
  Number of Threads ........ 1
  Head Tolerance ........... 0.001500 m
  
  
  **************************        Volume         Depth
  Runoff Quantity Continuity     hectare-m            mm
  **************************     ---------       -------
  Total Precipitation ......         1.398         7.758
  Evaporation Loss .........         0.000         0.000
  Infiltration Loss ........         0.000         0.000
  Surface Runoff ...........         1.375         7.629
  Final Storage ............         0.023         0.130
  Continuity Error (%) .....        -0.007
  
  
  **************************        Volume        Volume
  Flow Routing Continuity        hectare-m      10^6 ltr
  **************************     ---------     ---------
  Dry Weather Inflow .......         0.396         3.955
  Wet Weather Inflow .......         1.375        13.746
  Groundwater Inflow .......         0.000         0.000
  RDII Inflow ..............         0.000         0.000
  External Inflow ..........         0.000         0.000
  External Outflow .........         0.530         5.301
  Flooding Loss ............         0.252         2.517
  Evaporation Loss .........         0.000         0.000
  Exfiltration Loss ........         0.000         0.000
  Initial Stored Volume ....         0.000         0.000
  Final Stored Volume ......         0.764         7.637
  Continuity Error (%) .....        12.690
  
  
  *************************
  Highest Continuity Errors
  *************************
  Node T2 (35.01%)
  Node T3 (25.14%)
  Node T4 (24.37%)
  Node T5 (22.72%)
  Node T6 (17.44%)
  
  
  ***************************
  Time-Step Critical Elements
  ***************************
  None
  
  
  ********************************
  Highest Flow Instability Indexes
  ********************************
  Link C13 (1)
  
  
  *************************
  Routing Time Step Summary
  *************************
  Minimum Time Step           :     4.50 sec
  Average Time Step           :     5.00 sec
  Maximum Time Step           :     5.00 sec
  Percent in Steady State     :     0.00
  Average Iterations per Step :     2.19
  Percent Not Converging      :     0.57
  
  
  ***************************
  Subcatchment Runoff Summary
  ***************************
  
  ------------------------------------------------------------------------------------------------------------------------------
                            Total      Total      Total      Total     Imperv       Perv      Total       Total     Peak  Runoff
                           Precip      Runon       Evap      Infil     Runoff     Runoff     Runoff      Runoff   Runoff   Coeff
  Subcatchment                 mm         mm         mm         mm         mm         mm         mm    10^6 ltr      CMS
  ------------------------------------------------------------------------------------------------------------------------------
  SC01                       7.76       0.00       0.00       0.00       7.67       0.00       7.67        2.53     0.64   0.989
  SC02                       7.76       0.00       0.00       0.00       7.67       0.00       7.67        1.74     0.43   0.988
  SC03                       7.76       0.00       0.00       0.00       7.69       0.00       7.69        1.38     0.37   0.991
  SC04                       7.76       0.00       0.00       0.00       7.57       0.00       7.57        0.52     0.11   0.975
  SC05                       7.76       0.00       0.00       0.00       7.67       0.00       7.67        1.20     0.30   0.988
  SC06                       7.76       0.00       0.00       0.00       7.51       0.00       7.51        2.45     0.50   0.968
  SC07                       7.76       0.00       0.00       0.00       7.57       0.00       7.57        0.36     0.08   0.975
  SC08                       7.76       0.00       0.00       0.00       7.64       0.00       7.64        2.14     0.51   0.985
  SC09                       7.76       0.00       0.00       0.00       7.62       0.00       7.62        0.53     0.12   0.982
  SC010                      7.76       0.00       0.00       0.00       7.65       0.00       7.65        0.90     0.21   0.986
  
  
  ******************
  Node Depth Summary
  ******************
  
  ---------------------------------------------------------------------------------
                                 Average  Maximum  Maximum  Time of Max    Reported
                                   Depth    Depth      HGL   Occurrence   Max Depth
  Node                 Type       Meters   Meters   Meters  days hr:min      Meters
  ---------------------------------------------------------------------------------
  J1                   JUNCTION     0.08     0.19    34.19     0  02:36        0.19
  J3                   JUNCTION     0.09     0.11    18.11     0  05:05        0.11
  CSO7                 JUNCTION     0.18     1.20    35.20     0  02:30        1.20
  J5                   JUNCTION     0.07     0.15    32.15     0  02:41        0.15
  CSO9                 JUNCTION     0.21     2.00    42.00     0  02:37        2.00
  J8                   JUNCTION     0.11     0.26    36.26     0  02:42        0.26
  CSO8                 JUNCTION     0.23     2.00    34.00     0  02:31        2.00
  J10                  JUNCTION     0.10     0.28    29.28     0  02:37        0.28
  J13                  JUNCTION     0.07     0.18    29.18     0  02:36        0.18
  J15                  JUNCTION     0.16     0.33    15.33     0  02:40        0.33
  J16                  JUNCTION     0.07     0.20    30.20     0  02:36        0.20
  CSO10                JUNCTION     0.15     1.00    31.00     0  02:29        1.00
  J12                  JUNCTION     0.43     0.85    26.85     0  07:47        0.85
  J4                   JUNCTION     0.16     1.36    34.36     0  02:30        0.75
  J6                   JUNCTION     0.06     0.07    25.07     0  04:53        0.07
  J2                   JUNCTION     0.07     0.08    25.08     0  03:48        0.08
  J19                  JUNCTION     0.14     0.17     8.17     0  02:43        0.17
  J9                   JUNCTION     0.09     0.11    29.11     0  04:15        0.11
  J14                  JUNCTION     0.09     0.11    20.11     0  02:20        0.11
  J17                  JUNCTION     0.06     0.07    20.07     0  04:28        0.07
  J7                   JUNCTION     0.09     0.23    39.23     0  02:41        0.23
  J11                  JUNCTION     0.10     0.30    31.30     0  02:44        0.30
  J18                  JUNCTION     0.06     0.16    29.16     0  02:45        0.16
  Out_to_WWTP          OUTFALL      0.14     0.17     6.17     0  03:49        0.17
  T5                   STORAGE      3.33     5.00    32.00     0  03:01        5.00
  T4                   STORAGE      3.12     4.79    31.79     0  04:51        4.79
  T6                   STORAGE      3.48     5.00    36.00     0  02:46        5.00
  T3                   STORAGE      3.10     4.85    26.85     0  07:43        4.85
  T2                   STORAGE      2.95     4.39    25.39     0  04:26        4.39
  T1                   STORAGE      2.99     5.00    15.00     0  02:41        5.00
  
  
  *******************
  Node Inflow Summary
  *******************
  
  -------------------------------------------------------------------------------------------------
                                  Maximum  Maximum                  Lateral       Total        Flow
                                  Lateral    Total  Time of Max      Inflow      Inflow     Balance
                                   Inflow   Inflow   Occurrence      Volume      Volume       Error
  Node                 Type           CMS      CMS  days hr:min    10^6 ltr    10^6 ltr     Percent
  -------------------------------------------------------------------------------------------------
  J1                   JUNCTION     0.318    0.318     0  02:36        1.76        1.76       0.028
  J3                   JUNCTION     0.000    0.124     0  04:54           0        2.63       1.080
  CSO7                 JUNCTION     0.087    0.087     0  02:40        0.65        0.65       0.071
  J5                   JUNCTION     0.116    0.187     0  02:40       0.649        1.27       0.132
  CSO9                 JUNCTION     0.127    0.127     0  02:38       0.722       0.722       0.057
  J8                   JUNCTION     0.530    0.655     0  02:42        3.39         4.1       0.129
  CSO8                 JUNCTION     0.517    0.517     0  02:37        2.43        2.43       0.020
  J10                  JUNCTION     0.383    0.866     0  02:35        1.77        4.18       0.076
  J13                  JUNCTION     0.452    0.452     0  02:36        2.21        2.21      -0.162
  J15                  JUNCTION     0.000    0.966     0  02:36           0        7.34       0.921
  J16                  JUNCTION     0.660    0.660     0  02:35        3.09        3.09      -0.001
  CSO10                JUNCTION     0.219    0.219     0  02:37        1.04        1.04       0.021
  J12                  JUNCTION     0.000    0.924     0  02:37           0           6      12.151
  J4                   JUNCTION     0.000    0.075     0  02:30           0       0.628       0.533
  J6                   JUNCTION     0.000    0.027     0  04:51           0       0.539       0.739
  J2                   JUNCTION     0.000    0.039     0  03:02           0       0.827       0.617
  J19                  JUNCTION     0.000    0.271     0  02:41           0        5.31       0.193
  J9                   JUNCTION     0.000    0.075     0  02:46           0        1.63       1.053
  J14                  JUNCTION     0.000    0.061     0  02:20           0        1.28       0.338
  J17                  JUNCTION     0.000    0.031     0  04:26           0       0.633       1.013
  J7                   JUNCTION     0.000    0.127     0  02:38           0       0.721       0.436
  J11                  JUNCTION     0.000    0.486     0  02:44           0        2.42       0.256
  J18                  JUNCTION     0.000    0.202     0  02:45           0        1.03       0.095
  Out_to_WWTP          OUTFALL      0.000    0.271     0  02:43           0         5.3       0.000
  T5                   STORAGE      0.000    0.318     0  02:36           0        1.76      29.397
  T4                   STORAGE      0.000    0.187     0  02:41           0        1.27      32.215
  T6                   STORAGE      0.000    0.655     0  02:42           0         4.1      21.123
  T3                   STORAGE      0.000    0.914     0  02:40           0        5.35      33.574
  T2                   STORAGE      0.000    0.451     0  02:36           0        2.22      53.872
  T1                   STORAGE      0.000    0.952     0  02:40           0        7.27       7.076
  
  
  **********************
  Node Surcharge Summary
  **********************
  
  Surcharging occurs when water rises above the top of the highest conduit.
  ---------------------------------------------------------------------
                                               Max. Height   Min. Depth
                                   Hours       Above Crown    Below Rim
  Node                 Type      Surcharged         Meters       Meters
  ---------------------------------------------------------------------
  CSO7                 JUNCTION        0.71          0.945        0.000
  CSO9                 JUNCTION        0.72          1.682        0.000
  CSO8                 JUNCTION        0.68          1.547        0.000
  CSO10                JUNCTION        0.47          0.560        0.000
  J4                   JUNCTION        0.68          1.064        0.636
  
  
  *********************
  Node Flooding Summary
  *********************
  
  Flooding refers to all water that overflows a node, whether it ponds or not.
  --------------------------------------------------------------------------
                                                             Total   Maximum
                                 Maximum   Time of Max       Flood    Ponded
                        Hours       Rate    Occurrence      Volume     Depth
  Node                 Flooded       CMS   days hr:min    10^6 ltr    Meters
  --------------------------------------------------------------------------
  CSO7                    0.54     0.017      0  02:40       0.022     0.000
  CSO9                    0.02     0.000      0  02:37       0.000     0.000
  CSO8                    0.22     0.031      0  02:37       0.016     0.000
  CSO10                   0.25     0.017      0  02:37       0.010     0.000
  T5                      0.85     0.173      0  03:01       0.130     0.000
  T6                      2.29     0.572      0  02:46       1.250     0.000
  T1                      0.96     0.680      0  02:41       1.089     0.000
  
  
  **********************
  Storage Volume Summary
  **********************
  
  --------------------------------------------------------------------------------------------------
                         Average     Avg  Evap Exfil       Maximum     Max    Time of Max    Maximum
                          Volume    Pcnt  Pcnt  Pcnt        Volume    Pcnt     Occurrence    Outflow
  Storage Unit           1000 m3    Full  Loss  Loss       1000 m3    Full    days hr:min        CMS
  --------------------------------------------------------------------------------------------------
  T5                       0.333      67     0     0         0.500     100       0  03:01      0.039
  T4                       0.312      62     0     0         0.479      96       0  04:51      0.027
  T6                       0.417      70     0     0         0.600     100       0  02:46      0.075
  T3                       1.610      62     0     0         2.520      97       0  07:43      0.141
  T2                       0.591      59     0     0         0.878      88       0  04:26      0.031
  T1                       0.419      60     0     0         0.700     100       0  02:41      0.271
  
  
  ***********************
  Outfall Loading Summary
  ***********************
  
  -----------------------------------------------------------
                         Flow       Avg       Max       Total
                         Freq      Flow      Flow      Volume
  Outfall Node           Pcnt       CMS       CMS    10^6 ltr
  -----------------------------------------------------------
  Out_to_WWTP           99.01     0.190     0.271       5.301
  -----------------------------------------------------------
  System                99.01     0.190     0.271       5.301
  
  
  ********************
  Link Flow Summary
  ********************
  
  -----------------------------------------------------------------------------
                                 Maximum  Time of Max   Maximum    Max/    Max/
                                  |Flow|   Occurrence   |Veloc|    Full    Full
  Link                 Type          CMS  days hr:min     m/sec    Flow   Depth
  -----------------------------------------------------------------------------
  C1                   CONDUIT     0.039     0  03:48      1.08    0.01    0.09
  C6                   CONDUIT     0.071     0  02:41      1.29    1.13    0.74
  C2                   CONDUIT     0.027     0  04:53      1.00    0.03    0.15
  C9                   CONDUIT     0.126     0  02:41      1.31    0.43    0.49
  C16                  CONDUIT     0.486     0  02:37      1.77    0.05    0.14
  C3                   CONDUIT     0.061     0  02:20      1.45    0.02    0.11
  C19                  CONDUIT     0.031     0  04:28      0.66    0.01    0.20
  C11                  CONDUIT     0.124     0  05:05      1.44    0.01    0.11
  C20                  CONDUIT     0.659     0  02:36      2.75    0.02    0.13
  C22                  CONDUIT     0.202     0  02:45      1.59    0.09    0.31
  C12                  CONDUIT     0.075     0  04:14      0.68    0.01    0.24
  C17                  CONDUIT     0.862     0  02:37      2.99    0.04    0.22
  C10                  CONDUIT     0.655     0  02:42      1.66    0.07    0.59
  C13                  CONDUIT     0.914     0  02:40      1.45    0.05    0.71
  C18                  CONDUIT     0.451     0  02:36      1.72    0.02    0.55
  C23                  CONDUIT     0.952     0  02:40      1.24    0.11    0.61
  C4                   CONDUIT     0.318     0  02:36      1.98    0.08    0.59
  C7                   CONDUIT     0.187     0  02:41      1.43    0.05    0.57
  C14                  CONDUIT     0.271     0  02:43      2.08    0.02    0.09
  C5                   CONDUIT     0.075     0  02:30      1.47    1.29    1.00
  C8                   CONDUIT     0.127     0  02:38      1.75    1.60    0.86
  C15                  CONDUIT     0.486     0  02:44      3.43    1.55    0.83
  C21                  CONDUIT     0.202     0  02:45      1.83    1.16    0.69
  V4                   ORIFICE     0.027     0  04:51                      0.35
  V5                   ORIFICE     0.039     0  03:02                      1.00
  V1                   ORIFICE     0.271     0  02:41                      1.00
  V6                   ORIFICE     0.075     0  02:46                      0.43
  V3                   ORIFICE     0.061     0  02:20                      0.65
  V2                   ORIFICE     0.031     0  04:26                      0.24
  
  
  ***************************
  Flow Classification Summary
  ***************************
  
  -------------------------------------------------------------------------------------
                      Adjusted    ---------- Fraction of Time in Flow Class ---------- 
                       /Actual         Up    Down  Sub   Sup   Up    Down  Norm  Inlet 
  Conduit               Length    Dry  Dry   Dry   Crit  Crit  Crit  Crit  Ltd   Ctrl  
  -------------------------------------------------------------------------------------
  C1                      1.00   0.00  0.00  0.00  0.00  1.00  0.00  0.00  0.93  0.00
  C6                      1.00   0.00  0.00  0.00  0.11  0.89  0.00  0.00  0.00  0.00
  C2                      1.00   0.00  0.00  0.00  0.26  0.74  0.00  0.00  0.97  0.00
  C9                      1.00   0.00  0.00  0.00  1.00  0.00  0.00  0.00  1.00  0.00
  C16                     1.00   0.00  0.00  0.00  0.57  0.43  0.00  0.00  0.46  0.00
  C3                      1.00   0.00  0.00  0.00  0.04  0.95  0.00  0.00  0.76  0.00
  C19                     1.00   0.00  0.00  0.00  1.00  0.00  0.00  0.00  1.00  0.00
  C11                     1.00   0.00  0.00  0.00  0.34  0.66  0.00  0.00  1.00  0.00
  C20                     1.00   0.00  0.00  0.00  0.54  0.46  0.00  0.00  0.98  0.00
  C22                     1.00   0.00  0.00  0.00  0.75  0.25  0.00  0.00  1.00  0.00
  C12                     1.00   0.00  0.00  0.00  1.00  0.00  0.00  0.00  1.00  0.00
  C17                     1.00   0.00  0.00  0.00  0.56  0.44  0.00  0.00  0.97  0.00
  C10                     1.00   0.00  0.00  0.00  0.96  0.04  0.00  0.00  0.97  0.00
  C13                     1.00   0.00  0.00  0.00  0.84  0.16  0.00  0.00  0.33  0.00
  C18                     1.00   0.00  0.00  0.00  0.94  0.06  0.00  0.00  0.97  0.00
  C23                     1.00   0.00  0.00  0.00  0.87  0.13  0.00  0.00  0.94  0.00
  C4                      1.00   0.00  0.00  0.00  0.96  0.04  0.00  0.00  0.98  0.00
  C7                      1.00   0.00  0.00  0.00  0.95  0.05  0.00  0.00  0.97  0.00
  C14                     1.00   0.00  0.00  0.00  0.00  0.99  0.00  0.00  0.31  0.00
  C5                      1.00   0.00  0.00  0.00  0.89  0.11  0.00  0.00  0.89  0.00
  C8                      1.00   0.00  0.00  0.00  0.12  0.88  0.00  0.00  0.00  0.00
  C15                     1.00   0.00  0.00  0.00  0.00  1.00  0.00  0.00  0.00  0.00
  C21                     1.00   0.00  0.00  0.00  0.01  0.99  0.00  0.00  0.00  0.00
  
  
  *************************
  Conduit Surcharge Summary
  *************************
  
  ----------------------------------------------------------------------------
                                                           Hours        Hours 
                         --------- Hours Full --------   Above Full   Capacity
  Conduit                Both Ends  Upstream  Dnstream   Normal Flow   Limited
  ----------------------------------------------------------------------------
  C6                          0.01      0.68      0.01      0.58         0.01
  C10                         0.01      0.01      5.69      0.01         0.01
  C13                         0.01      0.01      5.22      0.01         0.01
  C18                         0.01      0.01      5.31      0.01         0.01
  C23                         0.01      0.01      5.76      0.01         0.01
  C4                          0.01      0.01      5.91      0.01         0.01
  C7                          0.01      0.01      5.68      0.01         0.01
  C5                          0.70      0.71      0.80      0.75         0.67
  C8                          0.01      0.72      0.01      0.74         0.01
  C15                         0.01      0.68      0.01      0.74         0.01
  C21                         0.01      0.47      0.01      0.43         0.01
  

  Analysis begun on:  Fri Sep  3 16:12:19 2021
  Analysis ended on:  Fri Sep  3 16:12:19 2021
  Total elapsed time: < 1 sec