
  EPA STORM WATER MANAGEMENT MODEL - VERSION 5.1 (Build 5.3.0.dev0)
  --------------------------------------------------------------

  WARNING 09: time series interval greater than recording interval for Rain Gage RG1
  WARNING 09: time series interval greater than recording interval for Rain Gage RG2
  WARNING 09: time series interval greater than recording interval for Rain Gage RG3
  WARNING 09: time series interval greater than recording interval for Rain Gage RG4
  
  *********************************************************
  NOTE: The summary statistics displayed in this report are
  based on results found at every computational time step,  
  not just on results from each reporting time step.
  *********************************************************
  
  ****************
  Analysis Options
  ****************
  Flow Units ............... CMS
  Process Models:
    Rainfall/Runoff ........ YES
    RDII ................... NO
    Snowmelt ............... NO
    Groundwater ............ NO
    Flow Routing ........... YES
    Ponding Allowed ........ YES
    Water Quality .......... NO
  Infiltration Method ...... HORTON
  Flow Routing Method ...... DYNWAVE
  Surcharge Method ......... EXTRAN
  Starting Date ............ 08/28/2015 00:00:00
  Ending Date .............. 08/28/2015 23:40:00
  Antecedent Dry Days ...... 0.0
  Report Time Step ......... 00:01:00
  Wet Time Step ............ 00:01:00
  Dry Time Step ............ 00:01:00
  Routing Time Step ........ 5.00 sec
  Variable Time Step ....... YES
  Maximum Trials ........... 8
  Number of Threads ........ 1
  Head Tolerance ........... 0.001500 m
  
  
  **************************        Volume         Depth
  Runoff Quantity Continuity     hectare-m            mm
  **************************     ---------       -------
  Total Precipitation ......         2.304        12.784
  Evaporation Loss .........         0.000         0.000
  Infiltration Loss ........         0.000         0.000
  Surface Runoff ...........         2.284        12.673
  Final Storage ............         0.022         0.120
  Continuity Error (%) .....        -0.074
  
  
  **************************        Volume        Volume
  Flow Routing Continuity        hectare-m      10^6 ltr
  **************************     ---------     ---------
  Dry Weather Inflow .......         0.758         7.576
  Wet Weather Inflow .......         2.284        22.836
  Groundwater Inflow .......         0.000         0.000
  RDII Inflow ..............         0.000         0.000
  External Inflow ..........         0.000         0.000
  External Outflow .........         1.659        16.587
  Flooding Loss ............         0.494         4.942
  Evaporation Loss .........         0.000         0.000
  Exfiltration Loss ........         0.000         0.000
  Initial Stored Volume ....         0.000         0.000
  Final Stored Volume ......         0.724         7.236
  Continuity Error (%) .....         5.415
  
  
  *************************
  Highest Continuity Errors
  *************************
  Node T2 (21.75%)
  Node T3 (15.33%)
  Node T4 (10.14%)
  Node J12 (8.32%)
  Node T5 (8.03%)
  
  
  ***************************
  Time-Step Critical Elements
  ***************************
  None
  
  
  ********************************
  Highest Flow Instability Indexes
  ********************************
  Link C20 (1)
  Link C15 (1)
  
  
  *************************
  Routing Time Step Summary
  *************************
  Minimum Time Step           :     4.50 sec
  Average Time Step           :     5.00 sec
  Maximum Time Step           :     5.00 sec
  Percent in Steady State     :     0.00
  Average Iterations per Step :     2.01
  Percent Not Converging      :     0.01
  
  
  ***************************
  Subcatchment Runoff Summary
  ***************************
  
  ------------------------------------------------------------------------------------------------------------------------------
                            Total      Total      Total      Total     Imperv       Perv      Total       Total     Peak  Runoff
                           Precip      Runon       Evap      Infil     Runoff     Runoff     Runoff      Runoff   Runoff   Coeff
  Subcatchment                 mm         mm         mm         mm         mm         mm         mm    10^6 ltr      CMS
  ------------------------------------------------------------------------------------------------------------------------------
  SC01                      17.11       0.00       0.00       0.00      17.05       0.00      17.05        5.63     1.18   0.997
  SC02                      10.29       0.00       0.00       0.00      10.21       0.00      10.21        2.32     0.15   0.993
  SC03                       9.43       0.00       0.00       0.00       9.36       0.00       9.36        1.69     0.11   0.993
  SC04                      10.29       0.00       0.00       0.00      10.15       0.00      10.15        0.70     0.03   0.987
  SC05                      17.11       0.00       0.00       0.00      17.04       0.00      17.04        2.66     0.51   0.996
  SC06                      12.25       0.00       0.00       0.00      12.03       0.00      12.03        3.92     0.18   0.982
  SC07                      10.29       0.00       0.00       0.00      10.15       0.00      10.15        0.48     0.02   0.987
  SC08                       9.43       0.00       0.00       0.00       9.32       0.00       9.32        2.61     0.14   0.988
  SC09                      12.25       0.00       0.00       0.00      12.10       0.00      12.10        0.84     0.04   0.988
  SC010                     17.11       0.00       0.00       0.00      17.02       0.00      17.02        2.00     0.32   0.995
  
  
  ******************
  Node Depth Summary
  ******************
  
  ---------------------------------------------------------------------------------
                                 Average  Maximum  Maximum  Time of Max    Reported
                                   Depth    Depth      HGL   Occurrence   Max Depth
  Node                 Type       Meters   Meters   Meters  days hr:min      Meters
  ---------------------------------------------------------------------------------
  J1                   JUNCTION     0.07     0.23    34.23     0  10:47        0.23
  J3                   JUNCTION     0.09     0.11    18.11     0  16:29        0.11
  CSO7                 JUNCTION     0.07     0.13    34.13     0  12:32        0.13
  J5                   JUNCTION     0.05     0.08    32.08     0  07:52        0.08
  CSO9                 JUNCTION     0.09     0.18    40.18     0  09:11        0.18
  J8                   JUNCTION     0.09     0.16    36.16     0  09:27        0.16
  CSO8                 JUNCTION     0.09     0.23    32.23     0  07:41        0.22
  J10                  JUNCTION     0.07     0.15    29.15     0  07:43        0.15
  J13                  JUNCTION     0.05     0.11    29.11     0  12:33        0.11
  J15                  JUNCTION     0.15     0.34    15.34     0  10:51        0.34
  J16                  JUNCTION     0.06     0.26    30.26     0  10:47        0.26
  CSO10                JUNCTION     0.11     1.00    31.00     0  10:46        1.00
  J12                  JUNCTION     0.49     1.01    27.01     0  16:32        1.01
  J4                   JUNCTION     0.09     0.15    33.15     0  12:39        0.15
  J6                   JUNCTION     0.05     0.07    25.07     0  14:07        0.07
  J2                   JUNCTION     0.06     0.08    25.08     0  11:32        0.08
  J19                  JUNCTION     0.14     0.17     8.17     0  10:45        0.17
  J9                   JUNCTION     0.08     0.11    29.11     0  09:43        0.11
  J14                  JUNCTION     0.09     0.11    20.11     0  08:10        0.11
  J17                  JUNCTION     0.06     0.07    20.07     0  17:06        0.07
  J7                   JUNCTION     0.07     0.13    39.13     0  09:13        0.13
  J11                  JUNCTION     0.07     0.16    31.16     0  07:43        0.16
  J18                  JUNCTION     0.05     0.16    29.16     0  10:51        0.16
  Out_to_WWTP          OUTFALL      0.14     0.17     6.17     0  10:24        0.17
  T5                   STORAGE      3.32     5.00    32.00     0  10:46        5.00
  T4                   STORAGE      2.87     4.80    31.80     0  14:05        4.80
  T6                   STORAGE      3.40     5.00    36.00     0  08:19        5.00
  T3                   STORAGE      3.04     5.00    27.00     0  16:26        5.00
  T2                   STORAGE      2.99     4.73    25.73     0  17:04        4.73
  T1                   STORAGE      3.22     5.00    15.00     0  10:44        5.00
  
  
  *******************
  Node Inflow Summary
  *******************
  
  -------------------------------------------------------------------------------------------------
                                  Maximum  Maximum                  Lateral       Total        Flow
                                  Lateral    Total  Time of Max      Inflow      Inflow     Balance
                                   Inflow   Inflow   Occurrence      Volume      Volume       Error
  Node                 Type           CMS      CMS  days hr:min    10^6 ltr    10^6 ltr     Percent
  -------------------------------------------------------------------------------------------------
  J1                   JUNCTION     0.534    0.534     0  10:46        3.75        3.75      -0.045
  J3                   JUNCTION     0.000    0.126     0  16:27           0        7.79       0.339
  CSO7                 JUNCTION     0.031    0.031     0  12:31        1.05        1.05       0.012
  J5                   JUNCTION     0.032    0.056     0  07:51       0.949        1.99      -0.023
  CSO9                 JUNCTION     0.047    0.047     0  09:11        1.22        1.22       0.011
  J8                   JUNCTION     0.207    0.249     0  09:26        5.75        6.96      -0.010
  CSO8                 JUNCTION     0.147    0.147     0  07:41        3.06        3.06      -0.000
  J10                  JUNCTION     0.124    0.247     0  07:41        2.44        5.49      -0.060
  J13                  JUNCTION     0.169    0.169     0  12:31        3.23        3.23      -0.163
  J15                  JUNCTION     0.000    1.365     0  10:47           0        18.5       0.333
  J16                  JUNCTION     1.200    1.200     0  10:46         6.7         6.7      -0.050
  CSO10                JUNCTION     0.320    0.320     0  10:46        2.27        2.27      -0.030
  J12                  JUNCTION     0.000    0.284     0  09:13           0        9.82       9.071
  J4                   JUNCTION     0.000    0.031     0  12:32           0        1.05       0.111
  J6                   JUNCTION     0.000    0.028     0  14:05           0        1.52       0.225
  J2                   JUNCTION     0.000    0.039     0  10:46           0        2.46       0.189
  J19                  JUNCTION     0.000    0.271     0  10:44           0        16.6       0.055
  J9                   JUNCTION     0.000    0.075     0  08:20           0        4.34       0.300
  J14                  JUNCTION     0.000    0.067     0  08:10           0        3.82       0.115
  J17                  JUNCTION     0.000    0.032     0  17:04           0        1.81       0.321
  J7                   JUNCTION     0.000    0.045     0  09:12           0        1.22       0.099
  J11                  JUNCTION     0.000    0.146     0  07:41           0        3.06       0.052
  J18                  JUNCTION     0.000    0.202     0  10:51           0        2.25      -0.013
  Out_to_WWTP          OUTFALL      0.000    0.271     0  10:46           0        16.6       0.000
  T5                   STORAGE      0.000    0.469     0  10:47           0        3.75       8.733
  T4                   STORAGE      0.000    0.055     0  07:52           0           2      11.284
  T6                   STORAGE      0.000    0.242     0  09:27           0        6.96       7.332
  T3                   STORAGE      0.000    0.280     0  09:18           0        9.01      18.108
  T2                   STORAGE      0.000    0.145     0  12:33           0        3.24      27.796
  T1                   STORAGE      0.000    1.012     0  10:51           0        18.5       2.061
  
  
  **********************
  Node Surcharge Summary
  **********************
  
  Surcharging occurs when water rises above the top of the highest conduit.
  ---------------------------------------------------------------------
                                               Max. Height   Min. Depth
                                   Hours       Above Crown    Below Rim
  Node                 Type      Surcharged         Meters       Meters
  ---------------------------------------------------------------------
  CSO10                JUNCTION        0.15          0.560        0.000
  
  
  *********************
  Node Flooding Summary
  *********************
  
  Flooding refers to all water that overflows a node, whether it ponds or not.
  --------------------------------------------------------------------------
                                                             Total   Maximum
                                 Maximum   Time of Max       Flood    Ponded
                        Hours       Rate    Occurrence      Volume     Depth
  Node                 Flooded       CMS   days hr:min    10^6 ltr    Meters
  --------------------------------------------------------------------------
  CSO10                   0.09     0.159      0  10:46       0.019     0.000
  T5                      6.28     0.429      0  10:47       0.695     0.000
  T6                      6.60     0.166      0  09:27       1.820     0.000
  T3                      6.67     0.159      0  17:27       1.210     0.000
  T1                      3.76     0.741      0  10:51       1.197     0.000
  
  
  **********************
  Storage Volume Summary
  **********************
  
  --------------------------------------------------------------------------------------------------
                         Average     Avg  Evap Exfil       Maximum     Max    Time of Max    Maximum
                          Volume    Pcnt  Pcnt  Pcnt        Volume    Pcnt     Occurrence    Outflow
  Storage Unit           1000 m3    Full  Loss  Loss       1000 m3    Full    days hr:min        CMS
  --------------------------------------------------------------------------------------------------
  T5                       0.332      66     0     0         0.500     100       0  10:46      0.039
  T4                       0.287      57     0     0         0.480      96       0  14:05      0.028
  T6                       0.408      68     0     0         0.600     100       0  08:19      0.075
  T3                       1.579      61     0     0         2.600     100       0  16:26      0.067
  T2                       0.599      60     0     0         0.946      95       0  17:04      0.032
  T1                       0.451      64     0     0         0.700     100       0  10:44      0.271
  
  
  ***********************
  Outfall Loading Summary
  ***********************
  
  -----------------------------------------------------------
                         Flow       Avg       Max       Total
                         Freq      Flow      Flow      Volume
  Outfall Node           Pcnt       CMS       CMS    10^6 ltr
  -----------------------------------------------------------
  Out_to_WWTP           99.43     0.196     0.271      16.587
  -----------------------------------------------------------
  System                99.43     0.196     0.271      16.587
  
  
  ********************
  Link Flow Summary
  ********************
  
  -----------------------------------------------------------------------------
                                 Maximum  Time of Max   Maximum    Max/    Max/
                                  |Flow|   Occurrence   |Veloc|    Full    Full
  Link                 Type          CMS  days hr:min     m/sec    Flow   Depth
  -----------------------------------------------------------------------------
  C1                   CONDUIT     0.039     0  11:32      1.06    0.01    0.10
  C6                   CONDUIT     0.028     0  12:39      1.10    0.44    0.39
  C2                   CONDUIT     0.028     0  14:08      0.99    0.03    0.15
  C9                   CONDUIT     0.043     0  09:13      0.91    0.15    0.29
  C16                  CONDUIT     0.136     0  07:43      1.19    0.01    0.08
  C3                   CONDUIT     0.067     0  08:10      1.45    0.03    0.11
  C19                  CONDUIT     0.032     0  17:06      0.69    0.01    0.20
  C11                  CONDUIT     0.126     0  16:29      1.47    0.01    0.11
  C20                  CONDUIT     1.092     0  10:47      4.80    0.03    0.14
  C22                  CONDUIT     0.199     0  10:51      1.48    0.09    0.31
  C12                  CONDUIT     0.075     0  09:43      0.91    0.01    0.28
  C17                  CONDUIT     0.237     0  07:43      2.01    0.01    0.28
  C10                  CONDUIT     0.242     0  09:27      0.94    0.02    0.55
  C13                  CONDUIT     0.280     0  09:18      1.49    0.02    0.75
  C18                  CONDUIT     0.145     0  12:33      1.01    0.01    0.53
  C23                  CONDUIT     1.012     0  10:51      1.04    0.11    0.61
  C4                   CONDUIT     0.469     0  10:47      1.13    0.11    0.61
  C7                   CONDUIT     0.055     0  07:52      0.82    0.01    0.54
  C14                  CONDUIT     0.271     0  10:46      2.08    0.02    0.09
  C5                   CONDUIT     0.031     0  12:32      1.16    0.52    0.54
  C8                   CONDUIT     0.045     0  09:12      1.19    0.57    0.49
  C15                  CONDUIT     0.146     0  07:41      2.27    0.46    0.42
  C21                  CONDUIT     0.202     0  10:51      1.96    1.16    0.68
  V4                   ORIFICE     0.028     0  14:05                      0.35
  V5                   ORIFICE     0.039     0  10:46                      1.00
  V1                   ORIFICE     0.271     0  10:44                      1.00
  V6                   ORIFICE     0.075     0  08:20                      0.43
  V3                   ORIFICE     0.067     0  08:10                      0.65
  V2                   ORIFICE     0.032     0  17:04                      0.24
  
  
  ***************************
  Flow Classification Summary
  ***************************
  
  -------------------------------------------------------------------------------------
                      Adjusted    ---------- Fraction of Time in Flow Class ---------- 
                       /Actual         Up    Down  Sub   Sup   Up    Down  Norm  Inlet 
  Conduit               Length    Dry  Dry   Dry   Crit  Crit  Crit  Crit  Ltd   Ctrl  
  -------------------------------------------------------------------------------------
  C1                      1.00   0.00  0.00  0.00  0.03  0.97  0.00  0.00  0.96  0.00
  C6                      1.00   0.00  0.00  0.00  0.01  0.99  0.00  0.00  0.00  0.00
  C2                      1.00   0.00  0.00  0.00  0.30  0.70  0.00  0.00  0.98  0.00
  C9                      1.00   0.00  0.00  0.00  1.00  0.00  0.00  0.00  1.00  0.00
  C16                     1.00   0.00  0.16  0.00  0.24  0.60  0.00  0.00  0.25  0.00
  C3                      1.00   0.00  0.00  0.00  0.04  0.96  0.00  0.00  0.79  0.00
  C19                     1.00   0.00  0.00  0.00  1.00  0.00  0.00  0.00  1.00  0.00
  C11                     1.00   0.00  0.00  0.00  0.23  0.77  0.00  0.00  1.00  0.00
  C20                     1.00   0.00  0.00  0.00  0.41  0.59  0.00  0.00  0.99  0.00
  C22                     1.00   0.00  0.00  0.00  0.94  0.06  0.00  0.00  1.00  0.00
  C12                     1.00   0.00  0.00  0.00  0.96  0.04  0.00  0.00  0.99  0.00
  C17                     1.00   0.00  0.00  0.00  0.67  0.33  0.00  0.00  0.97  0.00
  C10                     1.00   0.00  0.00  0.00  0.92  0.08  0.00  0.00  0.98  0.00
  C13                     1.00   0.00  0.00  0.00  0.80  0.20  0.00  0.00  0.38  0.00
  C18                     1.00   0.00  0.00  0.00  0.91  0.09  0.00  0.00  0.98  0.00
  C23                     1.00   0.00  0.00  0.00  0.83  0.17  0.00  0.00  0.96  0.00
  C4                      1.00   0.00  0.00  0.00  0.84  0.16  0.00  0.00  0.98  0.00
  C7                      1.00   0.00  0.00  0.00  0.95  0.05  0.00  0.00  0.97  0.00
  C14                     1.00   0.00  0.00  0.00  0.00  1.00  0.00  0.00  0.37  0.00
  C5                      1.00   0.00  0.00  0.00  0.92  0.08  0.00  0.00  0.99  0.00
  C8                      1.00   0.00  0.00  0.00  0.21  0.79  0.00  0.00  0.00  0.00
  C15                     1.00   0.16  0.00  0.00  0.00  0.84  0.00  0.00  0.00  0.00
  C21                     1.00   0.00  0.00  0.00  0.00  1.00  0.00  0.00  0.00  0.00
  
  
  *************************
  Conduit Surcharge Summary
  *************************
  
  ----------------------------------------------------------------------------
                                                           Hours        Hours 
                         --------- Hours Full --------   Above Full   Capacity
  Conduit                Both Ends  Upstream  Dnstream   Normal Flow   Limited
  ----------------------------------------------------------------------------
  C10                         0.01      0.01     18.08      0.01         0.01
  C13                         0.01      0.01     14.90      0.01         0.01
  C18                         0.01      0.01     16.25      0.01         0.01
  C23                         0.01      0.01     18.58      0.01         0.01
  C4                          0.01      0.01     18.71      0.01         0.01
  C7                          0.01      0.01     17.97      0.01         0.01
  C21                         0.01      0.15      0.01      0.13         0.01
  

  Analysis begun on:  Mon Sep 20 18:47:55 2021
  Analysis ended on:  Mon Sep 20 18:47:55 2021
  Total elapsed time: < 1 sec