
  EPA STORM WATER MANAGEMENT MODEL - VERSION 5.1 (Build 5.3.0.dev0)
  --------------------------------------------------------------

  WARNING 09: time series interval greater than recording interval for Rain Gage RG1
  WARNING 09: time series interval greater than recording interval for Rain Gage RG2
  WARNING 09: time series interval greater than recording interval for Rain Gage RG3
  WARNING 09: time series interval greater than recording interval for Rain Gage RG4
  
  *********************************************************
  NOTE: The summary statistics displayed in this report are
  based on results found at every computational time step,  
  not just on results from each reporting time step.
  *********************************************************
  
  ****************
  Analysis Options
  ****************
  Flow Units ............... CMS
  Process Models:
    Rainfall/Runoff ........ YES
    RDII ................... NO
    Snowmelt ............... NO
    Groundwater ............ NO
    Flow Routing ........... YES
    Ponding Allowed ........ YES
    Water Quality .......... NO
  Infiltration Method ...... HORTON
  Flow Routing Method ...... DYNWAVE
  Surcharge Method ......... EXTRAN
  Starting Date ............ 08/28/2015 00:00:00
  Ending Date .............. 08/28/2015 23:40:00
  Antecedent Dry Days ...... 0.0
  Report Time Step ......... 00:01:00
  Wet Time Step ............ 00:01:00
  Dry Time Step ............ 00:01:00
  Routing Time Step ........ 5.00 sec
  Variable Time Step ....... YES
  Maximum Trials ........... 8
  Number of Threads ........ 1
  Head Tolerance ........... 0.001500 m
  
  
  **************************        Volume         Depth
  Runoff Quantity Continuity     hectare-m            mm
  **************************     ---------       -------
  Total Precipitation ......         1.870        10.378
  Evaporation Loss .........         0.000         0.000
  Infiltration Loss ........         0.000         0.000
  Surface Runoff ...........         1.835        10.186
  Final Storage ............         0.036         0.198
  Continuity Error (%) .....        -0.055
  
  
  **************************        Volume        Volume
  Flow Routing Continuity        hectare-m      10^6 ltr
  **************************     ---------     ---------
  Dry Weather Inflow .......         0.758         7.576
  Wet Weather Inflow .......         1.835        18.354
  Groundwater Inflow .......         0.000         0.000
  RDII Inflow ..............         0.000         0.000
  External Inflow ..........         0.000         0.000
  External Outflow .........         1.026        10.258
  Flooding Loss ............         0.516         5.161
  Evaporation Loss .........         0.000         0.000
  Exfiltration Loss ........         0.000         0.000
  Initial Stored Volume ....         0.000         0.000
  Final Stored Volume ......         0.805         8.052
  Continuity Error (%) .....         9.480
  
  
  *************************
  Highest Continuity Errors
  *************************
  Node T2 (27.69%)
  Node T3 (16.53%)
  Node T4 (16.28%)
  Node T5 (14.95%)
  Node T6 (11.49%)
  
  
  ***************************
  Time-Step Critical Elements
  ***************************
  None
  
  
  ********************************
  Highest Flow Instability Indexes
  ********************************
  Link C15 (1)
  
  
  *************************
  Routing Time Step Summary
  *************************
  Minimum Time Step           :     4.50 sec
  Average Time Step           :     5.00 sec
  Maximum Time Step           :     5.00 sec
  Percent in Steady State     :     0.00
  Average Iterations per Step :     2.01
  Percent Not Converging      :     0.05
  
  
  ***************************
  Subcatchment Runoff Summary
  ***************************
  
  ------------------------------------------------------------------------------------------------------------------------------
                            Total      Total      Total      Total     Imperv       Perv      Total       Total     Peak  Runoff
                           Precip      Runon       Evap      Infil     Runoff     Runoff     Runoff      Runoff   Runoff   Coeff
  Subcatchment                 mm         mm         mm         mm         mm         mm         mm    10^6 ltr      CMS
  ------------------------------------------------------------------------------------------------------------------------------
  SC01                       9.85       0.00       0.00       0.00       9.74       0.00       9.74        3.21     0.35   0.989
  SC02                      10.00       0.00       0.00       0.00       9.87       0.00       9.87        2.24     0.26   0.987
  SC03                      11.13       0.00       0.00       0.00      11.05       0.00      11.05        1.99     0.28   0.993
  SC04                      10.00       0.00       0.00       0.00       9.71       0.00       9.71        0.67     0.07   0.971
  SC05                       9.85       0.00       0.00       0.00       9.73       0.00       9.73        1.52     0.16   0.987
  SC06                      10.64       0.00       0.00       0.00      10.25       0.00      10.25        3.34     0.34   0.963
  SC07                      10.00       0.00       0.00       0.00       9.71       0.00       9.71        0.46     0.05   0.971
  SC08                      11.13       0.00       0.00       0.00      10.95       0.00      10.95        3.07     0.36   0.984
  SC09                      10.64       0.00       0.00       0.00      10.41       0.00      10.41        0.72     0.09   0.979
  SC010                      9.85       0.00       0.00       0.00       9.69       0.00       9.69        1.14     0.12   0.984
  
  
  ******************
  Node Depth Summary
  ******************
  
  ---------------------------------------------------------------------------------
                                 Average  Maximum  Maximum  Time of Max    Reported
                                   Depth    Depth      HGL   Occurrence   Max Depth
  Node                 Type       Meters   Meters   Meters  days hr:min      Meters
  ---------------------------------------------------------------------------------
  J1                   JUNCTION     0.05     0.14    34.14     0  18:57        0.14
  J3                   JUNCTION     0.08     0.11    18.11     0  21:14        0.11
  CSO7                 JUNCTION     0.07     0.19    34.19     0  19:01        0.19
  J5                   JUNCTION     0.05     0.11    32.11     0  19:07        0.11
  CSO9                 JUNCTION     0.08     0.85    40.85     0  19:01        0.56
  J8                   JUNCTION     0.08     0.21    36.21     0  19:07        0.21
  CSO8                 JUNCTION     0.09     1.31    33.31     0  19:01        0.61
  J10                  JUNCTION     0.07     0.23    29.23     0  19:07        0.22
  J13                  JUNCTION     0.05     0.14    29.14     0  19:02        0.14
  J15                  JUNCTION     0.12     0.25    15.25     0  19:03        0.25
  J16                  JUNCTION     0.05     0.14    30.14     0  18:57        0.14
  CSO10                JUNCTION     0.08     0.29    30.29     0  18:56        0.29
  J12                  JUNCTION     0.26     1.02    27.02     0  19:54        1.02
  J4                   JUNCTION     0.09     0.22    33.22     0  19:08        0.22
  J6                   JUNCTION     0.04     0.07    25.07     0  20:04        0.07
  J2                   JUNCTION     0.05     0.08    25.08     0  19:51        0.08
  J19                  JUNCTION     0.11     0.17     8.17     0  18:43        0.17
  J9                   JUNCTION     0.07     0.11    29.11     0  19:20        0.11
  J14                  JUNCTION     0.07     0.12    20.12     0  15:30        0.12
  J17                  JUNCTION     0.04     0.08    20.08     0  20:22        0.08
  J7                   JUNCTION     0.06     0.18    39.18     0  19:07        0.18
  J11                  JUNCTION     0.07     0.24    31.24     0  19:08        0.24
  J18                  JUNCTION     0.04     0.12    29.12     0  18:58        0.12
  Out_to_WWTP          OUTFALL      0.10     0.17     6.17     0  20:50        0.17
  T5                   STORAGE      1.72     5.00    32.00     0  19:05        5.00
  T4                   STORAGE      1.93     5.00    32.00     0  19:18        5.00
  T6                   STORAGE      2.51     5.00    36.00     0  14:48        5.00
  T3                   STORAGE      1.57     5.00    27.00     0  19:46        5.00
  T2                   STORAGE      1.74     5.00    26.00     0  19:28        5.00
  T1                   STORAGE      1.63     5.00    15.00     0  18:42        5.00
  
  
  *******************
  Node Inflow Summary
  *******************
  
  -------------------------------------------------------------------------------------------------
                                  Maximum  Maximum                  Lateral       Total        Flow
                                  Lateral    Total  Time of Max      Inflow      Inflow     Balance
                                   Inflow   Inflow   Occurrence      Volume      Volume       Error
  Node                 Type           CMS      CMS  days hr:min    10^6 ltr    10^6 ltr     Percent
  -------------------------------------------------------------------------------------------------
  J1                   JUNCTION     0.176    0.176     0  18:56        2.61        2.61      -0.010
  J3                   JUNCTION     0.000    0.127     0  20:06           0        5.49       0.504
  CSO7                 JUNCTION     0.053    0.053     0  19:01        1.03        1.03       0.020
  J5                   JUNCTION     0.069    0.115     0  19:06       0.918        1.94       0.053
  CSO9                 JUNCTION     0.091    0.091     0  19:01         1.1         1.1       0.006
  J8                   JUNCTION     0.368    0.439     0  19:06        5.17        6.27       0.074
  CSO8                 JUNCTION     0.363    0.363     0  19:01        3.51        3.51       0.005
  J10                  JUNCTION     0.288    0.569     0  19:06        2.74        6.25      -0.085
  J13                  JUNCTION     0.271    0.271     0  19:01        3.15        3.15      -0.052
  J15                  JUNCTION     0.000    0.589     0  18:57           0        12.2       0.541
  J16                  JUNCTION     0.363    0.363     0  18:56        4.29        4.29      -0.014
  CSO10                JUNCTION     0.120    0.120     0  18:56        1.41        1.41       0.016
  J12                  JUNCTION     0.000    0.617     0  19:07           0        9.15       9.876
  J4                   JUNCTION     0.000    0.052     0  19:01           0        1.03       0.153
  J6                   JUNCTION     0.000    0.028     0  19:18           0        1.02       0.393
  J2                   JUNCTION     0.000    0.039     0  19:05           0        1.61       0.324
  J19                  JUNCTION     0.000    0.271     0  18:42           0        10.3       0.106
  J9                   JUNCTION     0.000    0.075     0  15:40           0        2.89       0.538
  J14                  JUNCTION     0.000    0.073     0  15:30           0        2.87       0.152
  J17                  JUNCTION     0.000    0.033     0  19:28           0        1.08       0.564
  J7                   JUNCTION     0.000    0.087     0  19:01           0         1.1       0.151
  J11                  JUNCTION     0.000    0.355     0  19:01           0        3.51       0.112
  J18                  JUNCTION     0.000    0.115     0  18:57           0        1.41       0.048
  Out_to_WWTP          OUTFALL      0.000    0.271     0  18:43           0        10.3       0.000
  T5                   STORAGE      0.000    0.164     0  18:57           0        2.61      17.584
  T4                   STORAGE      0.000    0.113     0  19:07           0        1.94      19.452
  T6                   STORAGE      0.000    0.425     0  19:07           0        6.26      12.978
  T3                   STORAGE      0.000    0.572     0  18:49           0        8.33      19.808
  T2                   STORAGE      0.000    0.252     0  19:02           0        3.16      38.293
  T1                   STORAGE      0.000    0.561     0  19:03           0        12.2       4.798
  
  
  **********************
  Node Surcharge Summary
  **********************
  
  Surcharging occurs when water rises above the top of the highest conduit.
  ---------------------------------------------------------------------
                                               Max. Height   Min. Depth
                                   Hours       Above Crown    Below Rim
  Node                 Type      Surcharged         Meters       Meters
  ---------------------------------------------------------------------
  CSO9                 JUNCTION        0.09          0.533        1.149
  CSO8                 JUNCTION        0.06          0.861        0.686
  
  
  *********************
  Node Flooding Summary
  *********************
  
  Flooding refers to all water that overflows a node, whether it ponds or not.
  --------------------------------------------------------------------------
                                                             Total   Maximum
                                 Maximum   Time of Max       Flood    Ponded
                        Hours       Rate    Occurrence      Volume     Depth
  Node                 Flooded       CMS   days hr:min    10^6 ltr    Meters
  --------------------------------------------------------------------------
  T5                      2.01     0.102      0  19:06       0.217     0.000
  T4                      2.19     0.067      0  19:18       0.172     0.000
  T6                      5.01     0.349      0  19:07       2.148     0.000
  T3                      3.49     0.366      0  19:57       1.454     0.000
  T2                      2.11     0.089      0  19:28       0.277     0.000
  T1                      1.99     0.290      0  19:03       0.893     0.000
  
  
  **********************
  Storage Volume Summary
  **********************
  
  --------------------------------------------------------------------------------------------------
                         Average     Avg  Evap Exfil       Maximum     Max    Time of Max    Maximum
                          Volume    Pcnt  Pcnt  Pcnt        Volume    Pcnt     Occurrence    Outflow
  Storage Unit           1000 m3    Full  Loss  Loss       1000 m3    Full    days hr:min        CMS
  --------------------------------------------------------------------------------------------------
  T5                       0.172      34     0     0         0.500     100       0  19:05      0.039
  T4                       0.193      39     0     0         0.500     100       0  19:18      0.028
  T6                       0.301      50     0     0         0.600     100       0  14:48      0.075
  T3                       0.817      31     0     0         2.600     100       0  19:46      0.159
  T2                       0.348      35     0     0         1.000     100       0  19:28      0.033
  T1                       0.229      33     0     0         0.700     100       0  18:42      0.271
  
  
  ***********************
  Outfall Loading Summary
  ***********************
  
  -----------------------------------------------------------
                         Flow       Avg       Max       Total
                         Freq      Flow      Flow      Volume
  Outfall Node           Pcnt       CMS       CMS    10^6 ltr
  -----------------------------------------------------------
  Out_to_WWTP           99.43     0.121     0.271      10.258
  -----------------------------------------------------------
  System                99.43     0.121     0.271      10.258
  
  
  ********************
  Link Flow Summary
  ********************
  
  -----------------------------------------------------------------------------
                                 Maximum  Time of Max   Maximum    Max/    Max/
                                  |Flow|   Occurrence   |Veloc|    Full    Full
  Link                 Type          CMS  days hr:min     m/sec    Flow   Depth
  -----------------------------------------------------------------------------
  C1                   CONDUIT     0.039     0  19:51      1.04    0.01    0.10
  C6                   CONDUIT     0.049     0  19:08      1.23    0.78    0.55
  C2                   CONDUIT     0.028     0  20:04      1.01    0.03    0.16
  C9                   CONDUIT     0.080     0  19:07      1.13    0.27    0.39
  C16                  CONDUIT     0.318     0  19:09      1.56    0.03    0.12
  C3                   CONDUIT     0.073     0  15:30      1.51    0.03    0.11
  C19                  CONDUIT     0.033     0  20:22      0.71    0.01    0.16
  C11                  CONDUIT     0.127     0  21:14      1.48    0.01    0.09
  C20                  CONDUIT     0.335     0  18:57      2.11    0.01    0.10
  C22                  CONDUIT     0.108     0  18:58      1.22    0.05    0.23
  C12                  CONDUIT     0.075     0  19:20      1.07    0.01    0.28
  C17                  CONDUIT     0.541     0  19:07      2.49    0.03    0.29
  C10                  CONDUIT     0.425     0  19:07      0.94    0.04    0.57
  C13                  CONDUIT     0.572     0  18:49      0.77    0.03    0.75
  C18                  CONDUIT     0.252     0  19:02      1.01    0.01    0.53
  C23                  CONDUIT     0.561     0  19:03      0.84    0.06    0.58
  C4                   CONDUIT     0.164     0  18:57      1.13    0.04    0.57
  C7                   CONDUIT     0.113     0  19:07      0.82    0.03    0.56
  C14                  CONDUIT     0.271     0  18:43      2.08    0.02    0.09
  C5                   CONDUIT     0.052     0  19:01      1.21    0.88    0.78
  C8                   CONDUIT     0.087     0  19:01      1.33    1.10    0.78
  C15                  CONDUIT     0.355     0  19:01      2.74    1.13    0.77
  C21                  CONDUIT     0.115     0  18:57      1.69    0.66    0.46
  V4                   ORIFICE     0.028     0  19:18                      0.35
  V5                   ORIFICE     0.039     0  19:05                      1.00
  V1                   ORIFICE     0.271     0  18:42                      1.00
  V6                   ORIFICE     0.075     0  15:40                      0.43
  V3                   ORIFICE     0.073     0  15:30                      0.65
  V2                   ORIFICE     0.033     0  19:28                      0.24
  
  
  ***************************
  Flow Classification Summary
  ***************************
  
  -------------------------------------------------------------------------------------
                      Adjusted    ---------- Fraction of Time in Flow Class ---------- 
                       /Actual         Up    Down  Sub   Sup   Up    Down  Norm  Inlet 
  Conduit               Length    Dry  Dry   Dry   Crit  Crit  Crit  Crit  Ltd   Ctrl  
  -------------------------------------------------------------------------------------
  C1                      1.00   0.00  0.00  0.00  0.05  0.95  0.00  0.00  0.96  0.00
  C6                      1.00   0.00  0.00  0.00  0.01  0.99  0.00  0.00  0.00  0.00
  C2                      1.00   0.00  0.00  0.00  0.60  0.40  0.00  0.00  0.98  0.00
  C9                      1.00   0.00  0.00  0.00  1.00  0.00  0.00  0.00  1.00  0.00
  C16                     1.00   0.00  0.25  0.00  0.33  0.42  0.00  0.00  0.26  0.00
  C3                      1.00   0.00  0.00  0.00  0.04  0.96  0.00  0.00  0.55  0.00
  C19                     1.00   0.00  0.00  0.00  1.00  0.00  0.00  0.00  1.00  0.00
  C11                     1.00   0.00  0.00  0.00  0.15  0.85  0.00  0.00  1.00  0.00
  C20                     1.00   0.00  0.00  0.00  0.67  0.33  0.00  0.00  0.99  0.00
  C22                     1.00   0.00  0.00  0.00  0.95  0.05  0.00  0.00  1.00  0.00
  C12                     1.00   0.00  0.00  0.00  0.87  0.13  0.00  0.00  0.95  0.00
  C17                     1.00   0.00  0.00  0.00  0.40  0.60  0.00  0.00  0.99  0.00
  C10                     1.00   0.00  0.00  0.00  0.97  0.03  0.00  0.00  0.98  0.00
  C13                     1.00   0.00  0.00  0.00  0.78  0.22  0.00  0.00  0.69  0.00
  C18                     1.00   0.00  0.00  0.00  0.96  0.04  0.00  0.00  0.98  0.00
  C23                     1.00   0.00  0.00  0.00  0.77  0.23  0.00  0.00  0.96  0.00
  C4                      1.00   0.00  0.00  0.00  0.82  0.18  0.00  0.00  0.98  0.00
  C7                      1.00   0.00  0.00  0.00  0.95  0.05  0.00  0.00  0.97  0.00
  C14                     1.00   0.00  0.00  0.00  0.00  1.00  0.00  0.00  0.43  0.00
  C5                      1.00   0.00  0.00  0.00  0.93  0.07  0.00  0.00  0.99  0.00
  C8                      1.00   0.00  0.00  0.00  0.18  0.82  0.00  0.00  0.00  0.00
  C15                     1.00   0.25  0.00  0.00  0.00  0.75  0.00  0.00  0.00  0.00
  C21                     1.00   0.00  0.00  0.00  0.00  1.00  0.00  0.00  0.00  0.00
  
  
  *************************
  Conduit Surcharge Summary
  *************************
  
  ----------------------------------------------------------------------------
                                                           Hours        Hours 
                         --------- Hours Full --------   Above Full   Capacity
  Conduit                Both Ends  Upstream  Dnstream   Normal Flow   Limited
  ----------------------------------------------------------------------------
  C10                         0.01      0.01     12.99      0.01         0.01
  C13                         0.01      0.01      7.39      0.01         0.01
  C18                         0.01      0.01      9.11      0.01         0.01
  C23                         0.01      0.01      9.75      0.01         0.01
  C4                          0.01      0.01     10.66      0.01         0.01
  C7                          0.01      0.01     12.43      0.01         0.01
  C8                          0.01      0.09      0.01      0.07         0.01
  C15                         0.01      0.06      0.01      0.12         0.01
  

  Analysis begun on:  Mon Sep 20 18:53:39 2021
  Analysis ended on:  Mon Sep 20 18:53:39 2021
  Total elapsed time: < 1 sec