
  EPA STORM WATER MANAGEMENT MODEL - VERSION 5.1 (Build 5.3.0.dev0)
  --------------------------------------------------------------

  WARNING 09: time series interval greater than recording interval for Rain Gage RG1
  WARNING 09: time series interval greater than recording interval for Rain Gage RG2
  WARNING 09: time series interval greater than recording interval for Rain Gage RG3
  WARNING 09: time series interval greater than recording interval for Rain Gage RG4
  
  *********************************************************
  NOTE: The summary statistics displayed in this report are
  based on results found at every computational time step,  
  not just on results from each reporting time step.
  *********************************************************
  
  ****************
  Analysis Options
  ****************
  Flow Units ............... CMS
  Process Models:
    Rainfall/Runoff ........ YES
    RDII ................... NO
    Snowmelt ............... NO
    Groundwater ............ NO
    Flow Routing ........... YES
    Ponding Allowed ........ YES
    Water Quality .......... NO
  Infiltration Method ...... HORTON
  Flow Routing Method ...... DYNWAVE
  Surcharge Method ......... EXTRAN
  Starting Date ............ 08/28/2015 00:00:00
  Ending Date .............. 08/28/2015 23:40:00
  Antecedent Dry Days ...... 0.0
  Report Time Step ......... 00:01:00
  Wet Time Step ............ 00:01:00
  Dry Time Step ............ 00:01:00
  Routing Time Step ........ 5.00 sec
  Variable Time Step ....... YES
  Maximum Trials ........... 8
  Number of Threads ........ 1
  Head Tolerance ........... 0.001500 m
  
  
  **************************        Volume         Depth
  Runoff Quantity Continuity     hectare-m            mm
  **************************     ---------       -------
  Total Precipitation ......         1.294         7.179
  Evaporation Loss .........         0.000         0.000
  Infiltration Loss ........         0.000         0.000
  Surface Runoff ...........         1.027         5.700
  Final Storage ............         0.272         1.509
  Continuity Error (%) .....        -0.415
  
  
  **************************        Volume        Volume
  Flow Routing Continuity        hectare-m      10^6 ltr
  **************************     ---------     ---------
  Dry Weather Inflow .......         0.758         7.576
  Wet Weather Inflow .......         1.022        10.218
  Groundwater Inflow .......         0.000         0.000
  RDII Inflow ..............         0.000         0.000
  External Inflow ..........         0.000         0.000
  External Outflow .........         0.667         6.671
  Flooding Loss ............         0.129         1.287
  Evaporation Loss .........         0.000         0.000
  Exfiltration Loss ........         0.000         0.000
  Initial Stored Volume ....         0.000         0.000
  Final Stored Volume ......         0.723         7.233
  Continuity Error (%) .....        14.631
  
  
  *************************
  Highest Continuity Errors
  *************************
  Node T2 (38.58%)
  Node T4 (24.90%)
  Node T6 (21.78%)
  Node T5 (21.33%)
  Node T3 (17.75%)
  
  
  ***************************
  Time-Step Critical Elements
  ***************************
  None
  
  
  ********************************
  Highest Flow Instability Indexes
  ********************************
  All links are stable.
  
  
  *************************
  Routing Time Step Summary
  *************************
  Minimum Time Step           :     4.50 sec
  Average Time Step           :     5.00 sec
  Maximum Time Step           :     5.00 sec
  Percent in Steady State     :     0.00
  Average Iterations per Step :     2.00
  Percent Not Converging      :     0.00
  
  
  ***************************
  Subcatchment Runoff Summary
  ***************************
  
  ------------------------------------------------------------------------------------------------------------------------------
                            Total      Total      Total      Total     Imperv       Perv      Total       Total     Peak  Runoff
                           Precip      Runon       Evap      Infil     Runoff     Runoff     Runoff      Runoff   Runoff   Coeff
  Subcatchment                 mm         mm         mm         mm         mm         mm         mm    10^6 ltr      CMS
  ------------------------------------------------------------------------------------------------------------------------------
  SC01                       7.27       0.00       0.00       0.00       6.04       0.00       6.04        1.99     0.50   0.831
  SC02                       8.02       0.00       0.00       0.00       6.80       0.00       6.80        1.55     0.34   0.848
  SC03                       6.92       0.00       0.00       0.00       6.21       0.00       6.21        1.12     0.21   0.898
  SC04                       8.02       0.00       0.00       0.00       5.86       0.00       5.86        0.40     0.09   0.731
  SC05                       7.27       0.00       0.00       0.00       5.95       0.00       5.95        0.93     0.23   0.819
  SC06                       6.61       0.00       0.00       0.00       4.33       0.00       4.33        1.41     0.33   0.655
  SC07                       8.02       0.00       0.00       0.00       5.87       0.00       5.87        0.28     0.06   0.732
  SC08                       6.92       0.00       0.00       0.00       5.64       0.00       5.64        1.58     0.28   0.816
  SC09                       6.61       0.00       0.00       0.00       4.95       0.00       4.95        0.34     0.08   0.749
  SC010                      7.27       0.00       0.00       0.00       5.70       0.00       5.70        0.67     0.16   0.784
  
  
  ******************
  Node Depth Summary
  ******************
  
  ---------------------------------------------------------------------------------
                                 Average  Maximum  Maximum  Time of Max    Reported
                                   Depth    Depth      HGL   Occurrence   Max Depth
  Node                 Type       Meters   Meters   Meters  days hr:min      Meters
  ---------------------------------------------------------------------------------
  J1                   JUNCTION     0.05     0.16    34.16     0  23:31        0.16
  J3                   JUNCTION     0.07     0.11    18.11     0  23:11        0.11
  CSO7                 JUNCTION     0.07     0.21    34.21     0  23:26        0.21
  J5                   JUNCTION     0.04     0.12    32.12     0  23:32        0.12
  CSO9                 JUNCTION     0.07     0.27    40.27     0  23:32        0.27
  J8                   JUNCTION     0.07     0.21    36.21     0  23:32        0.21
  CSO8                 JUNCTION     0.06     0.35    32.35     0  23:21        0.34
  J10                  JUNCTION     0.05     0.20    29.20     0  23:22        0.20
  J13                  JUNCTION     0.04     0.15    29.15     0  23:07        0.15
  J15                  JUNCTION     0.10     0.28    15.28     0  23:33        0.28
  J16                  JUNCTION     0.04     0.17    30.17     0  23:31        0.17
  CSO10                JUNCTION     0.07     0.36    30.36     0  23:31        0.36
  J12                  JUNCTION     0.07     0.23    26.23     0  23:29        0.23
  J4                   JUNCTION     0.08     0.23    33.23     0  23:33        0.23
  J6                   JUNCTION     0.04     0.07    25.07     0  23:40        0.07
  J2                   JUNCTION     0.04     0.07    25.07     0  23:40        0.07
  J19                  JUNCTION     0.09     0.17     8.17     0  23:29        0.17
  J9                   JUNCTION     0.05     0.11    29.11     0  23:40        0.11
  J14                  JUNCTION     0.07     0.12    20.12     0  23:10        0.12
  J17                  JUNCTION     0.03     0.07    20.07     0  23:40        0.07
  J7                   JUNCTION     0.05     0.17    39.17     0  23:33        0.17
  J11                  JUNCTION     0.05     0.22    31.22     0  23:23        0.22
  J18                  JUNCTION     0.03     0.14    29.14     0  23:33        0.14
  Out_to_WWTP          OUTFALL      0.09     0.17     6.17     0  23:27        0.17
  T5                   STORAGE      0.77     4.28    31.28     0  23:40        4.28
  T4                   STORAGE      1.22     5.00    32.00     0  23:36        5.00
  T6                   STORAGE      1.97     5.00    36.00     0  21:51        5.00
  T3                   STORAGE      0.47     3.19    25.19     0  23:40        3.19
  T2                   STORAGE      0.89     4.96    25.96     0  23:40        4.96
  T1                   STORAGE      0.67     5.00    15.00     0  23:27        5.00
  
  
  *******************
  Node Inflow Summary
  *******************
  
  -------------------------------------------------------------------------------------------------
                                  Maximum  Maximum                  Lateral       Total        Flow
                                  Lateral    Total  Time of Max      Inflow      Inflow     Balance
                                   Inflow   Inflow   Occurrence      Volume      Volume       Error
  Node                 Type           CMS      CMS  days hr:min    10^6 ltr    10^6 ltr     Percent
  -------------------------------------------------------------------------------------------------
  J1                   JUNCTION     0.233    0.233     0  23:26        2.02        2.02       0.588
  J3                   JUNCTION     0.000    0.126     0  23:10           0        4.29       0.600
  CSO7                 JUNCTION     0.060    0.060     0  23:26       0.842       0.842       0.222
  J5                   JUNCTION     0.086    0.138     0  23:26        0.65        1.48       0.877
  CSO9                 JUNCTION     0.081    0.081     0  23:26       0.721       0.721       0.396
  J8                   JUNCTION     0.337    0.408     0  23:31        3.23        3.93       1.178
  CSO8                 JUNCTION     0.280    0.280     0  23:21        2.02        2.02       0.226
  J10                  JUNCTION     0.211    0.444     0  23:21        1.86        3.84       1.262
  J13                  JUNCTION     0.343    0.343     0  23:06        2.45        2.45       0.729
  J15                  JUNCTION     0.000    0.742     0  23:32           0        8.71       2.158
  J16                  JUNCTION     0.501    0.501     0  23:26        3.06        3.06       0.733
  CSO10                JUNCTION     0.164    0.164     0  23:31       0.936       0.936       0.569
  J12                  JUNCTION     0.000    0.495     0  23:27           0        5.26       2.086
  J4                   JUNCTION     0.000    0.058     0  23:26           0        0.84       1.651
  J6                   JUNCTION     0.000    0.028     0  23:36           0       0.575       0.737
  J2                   JUNCTION     0.000    0.036     0  23:40           0        1.15       0.469
  J19                  JUNCTION     0.000    0.271     0  23:27           0        6.68       0.189
  J9                   JUNCTION     0.000    0.075     0  23:20           0        1.49       1.200
  J14                  JUNCTION     0.000    0.083     0  23:10           0        2.58       0.144
  J17                  JUNCTION     0.000    0.033     0  23:40           0       0.501       1.308
  J7                   JUNCTION     0.000    0.076     0  23:32           0       0.719       2.336
  J11                  JUNCTION     0.000    0.277     0  23:21           0        2.02       2.261
  J18                  JUNCTION     0.000    0.156     0  23:31           0       0.931       1.947
  Out_to_WWTP          OUTFALL      0.000    0.271     0  23:29           0        6.67       0.000
  T5                   STORAGE      0.000    0.216     0  23:31           0           2      27.120
  T4                   STORAGE      0.000    0.134     0  23:32           0        1.46      33.162
  T6                   STORAGE      0.000    0.391     0  23:32           0        3.89      27.837
  T3                   STORAGE      0.000    0.488     0  23:29           0        5.15      21.577
  T2                   STORAGE      0.000    0.315     0  23:07           0        2.43      62.800
  T1                   STORAGE      0.000    0.702     0  23:33           0        8.52      10.804
  
  
  **********************
  Node Surcharge Summary
  **********************
  
  No nodes were surcharged.
  
  
  *********************
  Node Flooding Summary
  *********************
  
  Flooding refers to all water that overflows a node, whether it ponds or not.
  --------------------------------------------------------------------------
                                                             Total   Maximum
                                 Maximum   Time of Max       Flood    Ponded
                        Hours       Rate    Occurrence      Volume     Depth
  Node                 Flooded       CMS   days hr:min    10^6 ltr    Meters
  --------------------------------------------------------------------------
  T4                      0.07     0.102      0  23:37       0.024     0.000
  T6                      1.82     0.315      0  23:32       0.955     0.000
  T1                      0.21     0.431      0  23:33       0.310     0.000
  
  
  **********************
  Storage Volume Summary
  **********************
  
  --------------------------------------------------------------------------------------------------
                         Average     Avg  Evap Exfil       Maximum     Max    Time of Max    Maximum
                          Volume    Pcnt  Pcnt  Pcnt        Volume    Pcnt     Occurrence    Outflow
  Storage Unit           1000 m3    Full  Loss  Loss       1000 m3    Full    days hr:min        CMS
  --------------------------------------------------------------------------------------------------
  T5                       0.077      15     0     0         0.428      86       0  23:40      0.036
  T4                       0.122      24     0     0         0.500     100       0  23:36      0.028
  T6                       0.237      39     0     0         0.600     100       0  21:51      0.075
  T3                       0.246       9     0     0         1.661      64       0  23:40      0.083
  T2                       0.178      18     0     0         0.993      99       0  23:40      0.033
  T1                       0.093      13     0     0         0.700     100       0  23:27      0.271
  
  
  ***********************
  Outfall Loading Summary
  ***********************
  
  -----------------------------------------------------------
                         Flow       Avg       Max       Total
                         Freq      Flow      Flow      Volume
  Outfall Node           Pcnt       CMS       CMS    10^6 ltr
  -----------------------------------------------------------
  Out_to_WWTP           99.43     0.079     0.271       6.671
  -----------------------------------------------------------
  System                99.43     0.079     0.271       6.671
  
  
  ********************
  Link Flow Summary
  ********************
  
  -----------------------------------------------------------------------------
                                 Maximum  Time of Max   Maximum    Max/    Max/
                                  |Flow|   Occurrence   |Veloc|    Full    Full
  Link                 Type          CMS  days hr:min     m/sec    Flow   Depth
  -----------------------------------------------------------------------------
  C1                   CONDUIT     0.036     0  23:40      1.02    0.01    0.09
  C6                   CONDUIT     0.055     0  23:33      1.25    0.87    0.60
  C2                   CONDUIT     0.028     0  23:40      1.07    0.03    0.15
  C9                   CONDUIT     0.073     0  23:33      1.09    0.25    0.38
  C16                  CONDUIT     0.254     0  23:23      1.46    0.02    0.10
  C3                   CONDUIT     0.083     0  23:10      1.59    0.03    0.12
  C19                  CONDUIT     0.033     0  23:40      0.36    0.01    0.18
  C11                  CONDUIT     0.125     0  23:11      1.21    0.01    0.10
  C20                  CONDUIT     0.461     0  23:31      2.45    0.01    0.11
  C22                  CONDUIT     0.149     0  23:33      1.40    0.07    0.26
  C12                  CONDUIT     0.075     0  23:40      0.76    0.01    0.09
  C17                  CONDUIT     0.424     0  23:23      2.37    0.02    0.11
  C10                  CONDUIT     0.391     0  23:32      0.94    0.04    0.57
  C13                  CONDUIT     0.488     0  23:29      0.77    0.03    0.56
  C18                  CONDUIT     0.315     0  23:07      1.01    0.01    0.54
  C23                  CONDUIT     0.702     0  23:33      0.83    0.08    0.59
  C4                   CONDUIT     0.216     0  23:31      1.13    0.05    0.58
  C7                   CONDUIT     0.134     0  23:32      0.82    0.03    0.56
  C14                  CONDUIT     0.271     0  23:29      2.08    0.02    0.09
  C5                   CONDUIT     0.058     0  23:26      1.25    0.99    0.85
  C8                   CONDUIT     0.076     0  23:32      1.33    0.96    0.69
  C15                  CONDUIT     0.277     0  23:21      2.67    0.88    0.62
  C21                  CONDUIT     0.156     0  23:31      1.78    0.89    0.56
  V4                   ORIFICE     0.028     0  23:36                      0.35
  V5                   ORIFICE     0.036     0  23:40                      1.00
  V1                   ORIFICE     0.271     0  23:27                      1.00
  V6                   ORIFICE     0.075     0  23:20                      0.43
  V3                   ORIFICE     0.083     0  23:10                      0.65
  V2                   ORIFICE     0.033     0  23:40                      0.24
  
  
  ***************************
  Flow Classification Summary
  ***************************
  
  -------------------------------------------------------------------------------------
                      Adjusted    ---------- Fraction of Time in Flow Class ---------- 
                       /Actual         Up    Down  Sub   Sup   Up    Down  Norm  Inlet 
  Conduit               Length    Dry  Dry   Dry   Crit  Crit  Crit  Crit  Ltd   Ctrl  
  -------------------------------------------------------------------------------------
  C1                      1.00   0.00  0.00  0.00  0.01  0.98  0.00  0.00  0.96  0.00
  C6                      1.00   0.00  0.00  0.00  0.01  0.99  0.00  0.00  0.00  0.00
  C2                      1.00   0.00  0.00  0.00  0.93  0.07  0.00  0.00  0.98  0.00
  C9                      1.00   0.00  0.00  0.00  1.00  0.00  0.00  0.00  1.00  0.00
  C16                     1.00   0.00  0.25  0.00  0.60  0.15  0.00  0.00  0.48  0.00
  C3                      1.00   0.00  0.00  0.00  0.04  0.96  0.00  0.00  0.19  0.00
  C19                     1.00   0.00  0.00  0.00  1.00  0.00  0.00  0.00  1.00  0.00
  C11                     1.00   0.00  0.00  0.00  0.07  0.93  0.00  0.00  1.00  0.00
  C20                     1.00   0.00  0.00  0.00  0.76  0.24  0.00  0.00  0.99  0.00
  C22                     1.00   0.00  0.00  0.00  0.97  0.03  0.00  0.00  1.00  0.00
  C12                     1.00   0.00  0.00  0.00  0.77  0.23  0.00  0.00  0.97  0.00
  C17                     1.00   0.00  0.00  0.00  0.26  0.74  0.00  0.00  0.99  0.00
  C10                     1.00   0.00  0.00  0.00  0.97  0.03  0.00  0.00  0.98  0.00
  C13                     1.00   0.00  0.00  0.00  0.80  0.20  0.00  0.00  0.91  0.00
  C18                     1.00   0.00  0.00  0.00  0.96  0.04  0.00  0.00  0.98  0.00
  C23                     1.00   0.00  0.00  0.00  0.77  0.23  0.00  0.00  0.96  0.00
  C4                      1.00   0.00  0.00  0.00  0.82  0.18  0.00  0.00  0.98  0.00
  C7                      1.00   0.00  0.00  0.00  0.95  0.05  0.00  0.00  0.97  0.00
  C14                     1.00   0.00  0.00  0.00  0.00  1.00  0.00  0.00  0.55  0.00
  C5                      1.00   0.00  0.00  0.00  0.91  0.09  0.00  0.00  0.98  0.00
  C8                      1.00   0.00  0.00  0.00  0.16  0.84  0.00  0.00  0.00  0.00
  C15                     1.00   0.25  0.03  0.00  0.03  0.69  0.00  0.00  0.06  0.00
  C21                     1.00   0.00  0.00  0.00  0.00  1.00  0.00  0.00  0.00  0.00
  
  
  *************************
  Conduit Surcharge Summary
  *************************
  
  ----------------------------------------------------------------------------
                                                           Hours        Hours 
                         --------- Hours Full --------   Above Full   Capacity
  Conduit                Both Ends  Upstream  Dnstream   Normal Flow   Limited
  ----------------------------------------------------------------------------
  C10                         0.01      0.01     12.97      0.01         0.01
  C13                         0.01      0.01      0.71      0.01         0.01
  C18                         0.01      0.01      2.53      0.01         0.01
  C23                         0.01      0.01      2.54      0.01         0.01
  C4                          0.01      0.01      6.97      0.01         0.01
  C7                          0.01      0.01     12.43      0.01         0.01
  

  Analysis begun on:  Mon Sep 20 19:06:30 2021
  Analysis ended on:  Mon Sep 20 19:06:30 2021
  Total elapsed time: < 1 sec