
  EPA STORM WATER MANAGEMENT MODEL - VERSION 5.1 (Build 5.3.0.dev0)
  --------------------------------------------------------------

  WARNING 09: time series interval greater than recording interval for Rain Gage RG1
  WARNING 09: time series interval greater than recording interval for Rain Gage RG2
  WARNING 09: time series interval greater than recording interval for Rain Gage RG3
  WARNING 09: time series interval greater than recording interval for Rain Gage RG4
  
  *********************************************************
  NOTE: The summary statistics displayed in this report are
  based on results found at every computational time step,  
  not just on results from each reporting time step.
  *********************************************************
  
  ****************
  Analysis Options
  ****************
  Flow Units ............... CMS
  Process Models:
    Rainfall/Runoff ........ YES
    RDII ................... NO
    Snowmelt ............... NO
    Groundwater ............ NO
    Flow Routing ........... YES
    Ponding Allowed ........ YES
    Water Quality .......... NO
  Infiltration Method ...... HORTON
  Flow Routing Method ...... DYNWAVE
  Surcharge Method ......... EXTRAN
  Starting Date ............ 08/28/2015 00:00:00
  Ending Date .............. 08/28/2015 23:40:00
  Antecedent Dry Days ...... 0.0
  Report Time Step ......... 00:01:00
  Wet Time Step ............ 00:01:00
  Dry Time Step ............ 00:01:00
  Routing Time Step ........ 5.00 sec
  Variable Time Step ....... YES
  Maximum Trials ........... 8
  Number of Threads ........ 1
  Head Tolerance ........... 0.001500 m
  
  
  **************************        Volume         Depth
  Runoff Quantity Continuity     hectare-m            mm
  **************************     ---------       -------
  Total Precipitation ......         1.838        10.200
  Evaporation Loss .........         0.000         0.000
  Infiltration Loss ........         0.000         0.000
  Surface Runoff ...........         1.799         9.986
  Final Storage ............         0.041         0.225
  Continuity Error (%) .....        -0.111
  
  
  **************************        Volume        Volume
  Flow Routing Continuity        hectare-m      10^6 ltr
  **************************     ---------     ---------
  Dry Weather Inflow .......         0.758         7.576
  Wet Weather Inflow .......         1.799        17.994
  Groundwater Inflow .......         0.000         0.000
  RDII Inflow ..............         0.000         0.000
  External Inflow ..........         0.000         0.000
  External Outflow .........         1.501        15.011
  Flooding Loss ............         0.140         1.397
  Evaporation Loss .........         0.000         0.000
  Exfiltration Loss ........         0.000         0.000
  Initial Stored Volume ....         0.000         0.000
  Final Stored Volume ......         0.738         7.379
  Continuity Error (%) .....         6.973
  
  
  *************************
  Highest Continuity Errors
  *************************
  Node T2 (21.85%)
  Node T3 (16.01%)
  Node T4 (9.77%)
  Node T5 (8.93%)
  Node J12 (8.65%)
  
  
  ***************************
  Time-Step Critical Elements
  ***************************
  None
  
  
  ********************************
  Highest Flow Instability Indexes
  ********************************
  All links are stable.
  
  
  *************************
  Routing Time Step Summary
  *************************
  Minimum Time Step           :     2.00 sec
  Average Time Step           :     5.00 sec
  Maximum Time Step           :     5.00 sec
  Percent in Steady State     :     0.00
  Average Iterations per Step :     2.06
  Percent Not Converging      :     0.43
  
  
  ***************************
  Subcatchment Runoff Summary
  ***************************
  
  ------------------------------------------------------------------------------------------------------------------------------
                            Total      Total      Total      Total     Imperv       Perv      Total       Total     Peak  Runoff
                           Precip      Runon       Evap      Infil     Runoff     Runoff     Runoff      Runoff   Runoff   Coeff
  Subcatchment                 mm         mm         mm         mm         mm         mm         mm    10^6 ltr      CMS
  ------------------------------------------------------------------------------------------------------------------------------
  SC01                      10.82       0.00       0.00       0.00      10.67       0.00      10.67        3.52     0.59   0.986
  SC02                      11.81       0.00       0.00       0.00      11.65       0.00      11.65        2.65     0.60   0.986
  SC03                       8.13       0.00       0.00       0.00       8.03       0.00       8.03        1.44     0.26   0.987
  SC04                      11.81       0.00       0.00       0.00      11.47       0.00      11.47        0.79     0.13   0.971
  SC05                      10.82       0.00       0.00       0.00      10.65       0.00      10.65        1.66     0.27   0.984
  SC06                      10.26       0.00       0.00       0.00       9.93       0.00       9.93        3.23     0.29   0.968
  SC07                      11.81       0.00       0.00       0.00      11.47       0.00      11.47        0.54     0.09   0.971
  SC08                       8.13       0.00       0.00       0.00       7.90       0.00       7.90        2.21     0.27   0.972
  SC09                      10.26       0.00       0.00       0.00      10.04       0.00      10.04        0.69     0.09   0.978
  SC010                     10.82       0.00       0.00       0.00      10.60       0.00      10.60        1.25     0.18   0.979
  
  
  ******************
  Node Depth Summary
  ******************
  
  ---------------------------------------------------------------------------------
                                 Average  Maximum  Maximum  Time of Max    Reported
                                   Depth    Depth      HGL   Occurrence   Max Depth
  Node                 Type       Meters   Meters   Meters  days hr:min      Meters
  ---------------------------------------------------------------------------------
  J1                   JUNCTION     0.06     0.17    34.17     0  02:02        0.17
  J3                   JUNCTION     0.09     0.11    18.11     0  17:53        0.11
  CSO7                 JUNCTION     0.09     1.20    35.20     0  01:26        1.20
  J5                   JUNCTION     0.05     0.15    32.15     0  01:36        0.15
  CSO9                 JUNCTION     0.08     0.72    40.72     0  01:12        0.41
  J8                   JUNCTION     0.09     0.19    36.19     0  01:14        0.19
  CSO8                 JUNCTION     0.09     0.36    32.36     0  14:11        0.35
  J10                  JUNCTION     0.07     0.20    29.20     0  14:16        0.20
  J13                  JUNCTION     0.05     0.20    29.20     0  01:31        0.20
  J15                  JUNCTION     0.14     0.27    15.27     0  02:07        0.27
  J16                  JUNCTION     0.05     0.18    30.18     0  02:01        0.18
  CSO10                JUNCTION     0.09     0.39    30.39     0  02:02        0.39
  J12                  JUNCTION     0.35     1.01    27.01     0  21:35        1.01
  J4                   JUNCTION     0.10     1.53    34.53     0  01:31        0.77
  J6                   JUNCTION     0.06     0.07    25.07     0  10:52        0.07
  J2                   JUNCTION     0.06     0.07    25.07     0  15:08        0.07
  J19                  JUNCTION     0.14     0.16     8.16     0  14:58        0.16
  J9                   JUNCTION     0.09     0.11    29.11     0  15:35        0.11
  J14                  JUNCTION     0.09     0.11    20.11     0  10:30        0.11
  J17                  JUNCTION     0.06     0.07    20.07     0  17:46        0.07
  J7                   JUNCTION     0.07     0.17    39.17     0  01:16        0.17
  J11                  JUNCTION     0.07     0.21    31.21     0  14:17        0.21
  J18                  JUNCTION     0.04     0.14    29.14     0  02:03        0.14
  Out_to_WWTP          OUTFALL      0.14     0.16     6.16     0  14:58        0.16
  T5                   STORAGE      2.47     3.76    30.76     0  15:06        3.76
  T4                   STORAGE      3.49     4.22    31.22     0  10:44        4.22
  T6                   STORAGE      3.86     5.00    36.00     0  14:21        5.00
  T3                   STORAGE      2.52     5.00    27.00     0  19:07        5.00
  T2                   STORAGE      3.93     4.74    25.74     0  17:44        4.74
  T1                   STORAGE      2.33     4.05    14.05     0  14:58        4.05
  
  
  *******************
  Node Inflow Summary
  *******************
  
  -------------------------------------------------------------------------------------------------
                                  Maximum  Maximum                  Lateral       Total        Flow
                                  Lateral    Total  Time of Max      Inflow      Inflow     Balance
                                   Inflow   Inflow   Occurrence      Volume      Volume       Error
  Node                 Type           CMS      CMS  days hr:min    10^6 ltr    10^6 ltr     Percent
  -------------------------------------------------------------------------------------------------
  J1                   JUNCTION     0.269    0.269     0  02:01        2.75        2.75      -0.058
  J3                   JUNCTION     0.000    0.116     0  17:52           0        7.82       0.338
  CSO7                 JUNCTION     0.088    0.088     0  01:31        1.11        1.11       0.023
  J5                   JUNCTION     0.126    0.192     0  01:36        1.04        2.14      -0.017
  CSO9                 JUNCTION     0.091    0.091     0  01:11        1.07        1.07       0.002
  J8                   JUNCTION     0.290    0.344     0  01:11        5.06        6.14      -0.046
  CSO8                 JUNCTION     0.282    0.282     0  14:11        2.66        2.66       0.002
  J10                  JUNCTION     0.277    0.443     0  14:12        2.19        4.85      -0.036
  J13                  JUNCTION     0.601    0.601     0  01:31        3.56        3.56      -0.249
  J15                  JUNCTION     0.000    0.728     0  02:02           0        15.9       0.398
  J16                  JUNCTION     0.591    0.591     0  02:01         4.6         4.6      -0.054
  CSO10                JUNCTION     0.179    0.179     0  02:01        1.52        1.52       0.016
  J12                  JUNCTION     0.000    0.504     0  14:16           0        9.45       9.467
  J4                   JUNCTION     0.000    0.082     0  02:06           0        1.11       0.074
  J6                   JUNCTION     0.000    0.026     0  10:44           0        1.66       0.197
  J2                   JUNCTION     0.000    0.034     0  15:06           0        2.27       0.183
  J19                  JUNCTION     0.000    0.243     0  14:58           0          15       0.066
  J9                   JUNCTION     0.000    0.075     0  14:21           0        4.61       0.282
  J14                  JUNCTION     0.000    0.062     0  10:30           0         3.9       0.114
  J17                  JUNCTION     0.000    0.032     0  17:44           0        1.98       0.302
  J7                   JUNCTION     0.000    0.084     0  01:12           0        1.07       0.178
  J11                  JUNCTION     0.000    0.279     0  14:11           0        2.66       0.246
  J18                  JUNCTION     0.000    0.167     0  02:02           0        1.52       0.058
  Out_to_WWTP          OUTFALL      0.000    0.243     0  14:58           0          15       0.000
  T5                   STORAGE      0.000    0.245     0  02:02           0        2.76       9.809
  T4                   STORAGE      0.000    0.186     0  01:36           0        2.14      10.833
  T6                   STORAGE      0.000    0.327     0  01:14           0        6.14       9.301
  T3                   STORAGE      0.000    0.484     0  14:19           0        8.63      19.069
  T2                   STORAGE      0.000    0.555     0  01:31           0        3.57      27.954
  T1                   STORAGE      0.000    0.638     0  02:07           0        15.8       2.885
  
  
  **********************
  Node Surcharge Summary
  **********************
  
  Surcharging occurs when water rises above the top of the highest conduit.
  ---------------------------------------------------------------------
                                               Max. Height   Min. Depth
                                   Hours       Above Crown    Below Rim
  Node                 Type      Surcharged         Meters       Meters
  ---------------------------------------------------------------------
  CSO7                 JUNCTION        0.56          0.945        0.000
  CSO9                 JUNCTION        0.04          0.404        1.278
  J4                   JUNCTION        0.46          1.234        0.466
  
  
  *********************
  Node Flooding Summary
  *********************
  
  Flooding refers to all water that overflows a node, whether it ponds or not.
  --------------------------------------------------------------------------
                                                             Total   Maximum
                                 Maximum   Time of Max       Flood    Ponded
                        Hours       Rate    Occurrence      Volume     Depth
  Node                 Flooded       CMS   days hr:min    10^6 ltr    Meters
  --------------------------------------------------------------------------
  CSO7                    0.23     0.019      0  01:31       0.005     0.000
  T6                      3.09     0.157      0  14:21       0.648     0.000
  T3                      4.20     0.196      0  21:38       0.744     0.000
  
  
  **********************
  Storage Volume Summary
  **********************
  
  --------------------------------------------------------------------------------------------------
                         Average     Avg  Evap Exfil       Maximum     Max    Time of Max    Maximum
                          Volume    Pcnt  Pcnt  Pcnt        Volume    Pcnt     Occurrence    Outflow
  Storage Unit           1000 m3    Full  Loss  Loss       1000 m3    Full    days hr:min        CMS
  --------------------------------------------------------------------------------------------------
  T5                       0.247      49     0     0         0.376      75       0  15:06      0.034
  T4                       0.349      70     0     0         0.422      84       0  10:44      0.026
  T6                       0.463      77     0     0         0.600     100       0  14:21      0.075
  T3                       1.313      50     0     0         2.600     100       0  19:07      0.062
  T2                       0.785      79     0     0         0.947      95       0  17:44      0.032
  T1                       0.326      47     0     0         0.567      81       0  14:58      0.243
  
  
  ***********************
  Outfall Loading Summary
  ***********************
  
  -----------------------------------------------------------
                         Flow       Avg       Max       Total
                         Freq      Flow      Flow      Volume
  Outfall Node           Pcnt       CMS       CMS    10^6 ltr
  -----------------------------------------------------------
  Out_to_WWTP           99.43     0.177     0.243      15.011
  -----------------------------------------------------------
  System                99.43     0.177     0.243      15.011
  
  
  ********************
  Link Flow Summary
  ********************
  
  -----------------------------------------------------------------------------
                                 Maximum  Time of Max   Maximum    Max/    Max/
                                  |Flow|   Occurrence   |Veloc|    Full    Full
  Link                 Type          CMS  days hr:min     m/sec    Flow   Depth
  -----------------------------------------------------------------------------
  C1                   CONDUIT     0.034     0  15:08      1.07    0.01    0.09
  C6                   CONDUIT     0.071     0  01:36      1.28    1.13    0.74
  C2                   CONDUIT     0.026     0  10:52      1.13    0.03    0.15
  C9                   CONDUIT     0.075     0  01:16      1.17    0.26    0.36
  C16                  CONDUIT     0.239     0  14:17      1.40    0.02    0.10
  C3                   CONDUIT     0.062     0  10:30      1.42    0.02    0.11
  C19                  CONDUIT     0.032     0  17:46      0.72    0.01    0.16
  C11                  CONDUIT     0.116     0  17:53      1.43    0.01    0.08
  C20                  CONDUIT     0.539     0  02:02      3.01    0.02    0.11
  C22                  CONDUIT     0.155     0  02:03      1.56    0.07    0.26
  C12                  CONDUIT     0.075     0  15:34      1.07    0.01    0.28
  C17                  CONDUIT     0.430     0  14:16      2.43    0.02    0.28
  C10                  CONDUIT     0.327     0  01:14      1.87    0.03    0.56
  C13                  CONDUIT     0.484     0  14:19      2.09    0.03    0.75
  C18                  CONDUIT     0.555     0  01:31      2.45    0.02    0.55
  C23                  CONDUIT     0.638     0  02:07      1.52    0.07    0.59
  C4                   CONDUIT     0.245     0  02:02      1.38    0.06    0.58
  C7                   CONDUIT     0.186     0  01:36      1.29    0.05    0.57
  C14                  CONDUIT     0.243     0  14:58      2.01    0.01    0.08
  C5                   CONDUIT     0.082     0  02:06      1.64    1.40    1.00
  C8                   CONDUIT     0.084     0  01:12      1.47    1.06    0.77
  C15                  CONDUIT     0.279     0  14:11      2.82    0.89    0.60
  C21                  CONDUIT     0.167     0  02:02      1.79    0.96    0.59
  V4                   ORIFICE     0.026     0  10:44                      0.35
  V5                   ORIFICE     0.034     0  15:06                      1.00
  V1                   ORIFICE     0.243     0  14:58                      1.00
  V6                   ORIFICE     0.075     0  14:21                      0.43
  V3                   ORIFICE     0.062     0  10:30                      0.65
  V2                   ORIFICE     0.032     0  17:44                      0.24
  
  
  ***************************
  Flow Classification Summary
  ***************************
  
  -------------------------------------------------------------------------------------
                      Adjusted    ---------- Fraction of Time in Flow Class ---------- 
                       /Actual         Up    Down  Sub   Sup   Up    Down  Norm  Inlet 
  Conduit               Length    Dry  Dry   Dry   Crit  Crit  Crit  Crit  Ltd   Ctrl  
  -------------------------------------------------------------------------------------
  C1                      1.00   0.00  0.00  0.00  0.00  1.00  0.00  0.00  0.94  0.00
  C6                      1.00   0.00  0.00  0.00  0.04  0.96  0.00  0.00  0.00  0.00
  C2                      1.00   0.00  0.00  0.00  0.23  0.77  0.00  0.00  0.98  0.00
  C9                      1.00   0.00  0.00  0.00  0.99  0.01  0.00  0.00  1.00  0.00
  C16                     1.00   0.00  0.05  0.00  0.51  0.44  0.00  0.00  0.46  0.00
  C3                      1.00   0.00  0.00  0.00  0.07  0.92  0.00  0.00  0.77  0.00
  C19                     1.00   0.00  0.00  0.00  1.00  0.00  0.00  0.00  1.00  0.00
  C11                     1.00   0.00  0.00  0.00  0.19  0.81  0.00  0.00  1.00  0.00
  C20                     1.00   0.00  0.00  0.00  0.72  0.28  0.00  0.00  0.99  0.00
  C22                     1.00   0.00  0.00  0.00  0.92  0.08  0.00  0.00  1.00  0.00
  C12                     1.00   0.00  0.00  0.00  0.54  0.46  0.00  0.00  0.91  0.00
  C17                     1.00   0.00  0.00  0.00  0.62  0.38  0.00  0.00  0.99  0.00
  C10                     1.00   0.00  0.00  0.00  0.96  0.04  0.00  0.00  0.98  0.00
  C13                     1.00   0.00  0.00  0.00  0.90  0.10  0.00  0.00  0.58  0.00
  C18                     1.00   0.00  0.00  0.00  0.95  0.05  0.00  0.00  0.98  0.00
  C23                     1.00   0.00  0.00  0.00  0.94  0.06  0.00  0.00  0.95  0.00
  C4                      1.00   0.00  0.00  0.00  0.95  0.05  0.00  0.00  0.97  0.00
  C7                      1.00   0.00  0.00  0.00  0.95  0.05  0.00  0.00  0.97  0.00
  C14                     1.00   0.00  0.00  0.00  0.00  1.00  0.00  0.00  0.66  0.00
  C5                      1.00   0.00  0.00  0.00  0.92  0.08  0.00  0.00  0.95  0.00
  C8                      1.00   0.00  0.00  0.00  0.06  0.94  0.00  0.00  0.00  0.00
  C15                     1.00   0.05  0.00  0.00  0.00  0.95  0.00  0.00  0.00  0.00
  C21                     1.00   0.00  0.00  0.00  0.00  1.00  0.00  0.00  0.00  0.00
  
  
  *************************
  Conduit Surcharge Summary
  *************************
  
  ----------------------------------------------------------------------------
                                                           Hours        Hours 
                         --------- Hours Full --------   Above Full   Capacity
  Conduit                Both Ends  Upstream  Dnstream   Normal Flow   Limited
  ----------------------------------------------------------------------------
  C6                          0.01      0.46      0.01      0.30         0.01
  C10                         0.01      0.01     22.13      0.01         0.01
  C13                         0.01      0.01     10.76      0.01         0.01
  C18                         0.01      0.01     21.93      0.01         0.01
  C23                         0.01      0.01     19.94      0.01         0.01
  C4                          0.01      0.01     21.74      0.01         0.01
  C7                          0.01      0.01     22.07      0.01         0.01
  C5                          0.50      0.56      0.68      0.55         0.45
  C8                          0.01      0.04      0.01      0.02         0.01
  

  Analysis begun on:  Mon Sep 20 19:27:57 2021
  Analysis ended on:  Mon Sep 20 19:27:58 2021
  Total elapsed time: 00:00:01