
  EPA STORM WATER MANAGEMENT MODEL - VERSION 5.1 (Build 5.3.0.dev0)
  --------------------------------------------------------------

  WARNING 09: time series interval greater than recording interval for Rain Gage RG1
  WARNING 09: time series interval greater than recording interval for Rain Gage RG2
  WARNING 09: time series interval greater than recording interval for Rain Gage RG3
  WARNING 09: time series interval greater than recording interval for Rain Gage RG4
  
  *********************************************************
  NOTE: The summary statistics displayed in this report are
  based on results found at every computational time step,  
  not just on results from each reporting time step.
  *********************************************************
  
  ****************
  Analysis Options
  ****************
  Flow Units ............... CMS
  Process Models:
    Rainfall/Runoff ........ YES
    RDII ................... NO
    Snowmelt ............... NO
    Groundwater ............ NO
    Flow Routing ........... YES
    Ponding Allowed ........ YES
    Water Quality .......... NO
  Infiltration Method ...... HORTON
  Flow Routing Method ...... DYNWAVE
  Surcharge Method ......... EXTRAN
  Starting Date ............ 08/28/2015 00:00:00
  Ending Date .............. 08/28/2015 23:40:00
  Antecedent Dry Days ...... 0.0
  Report Time Step ......... 00:01:00
  Wet Time Step ............ 00:01:00
  Dry Time Step ............ 00:01:00
  Routing Time Step ........ 5.00 sec
  Variable Time Step ....... YES
  Maximum Trials ........... 8
  Number of Threads ........ 1
  Head Tolerance ........... 0.001500 m
  
  
  **************************        Volume         Depth
  Runoff Quantity Continuity     hectare-m            mm
  **************************     ---------       -------
  Total Precipitation ......         2.076        11.521
  Evaporation Loss .........         0.000         0.000
  Infiltration Loss ........         0.000         0.000
  Surface Runoff ...........         2.064        11.453
  Final Storage ............         0.016         0.087
  Continuity Error (%) .....        -0.170
  
  
  **************************        Volume        Volume
  Flow Routing Continuity        hectare-m      10^6 ltr
  **************************     ---------     ---------
  Dry Weather Inflow .......         0.758         7.576
  Wet Weather Inflow .......         2.064        20.639
  Groundwater Inflow .......         0.000         0.000
  RDII Inflow ..............         0.000         0.000
  External Inflow ..........         0.000         0.000
  External Outflow .........         1.258        12.582
  Flooding Loss ............         0.723         7.226
  Evaporation Loss .........         0.000         0.000
  Exfiltration Loss ........         0.000         0.000
  Initial Stored Volume ....         0.000         0.000
  Final Stored Volume ......         0.701         7.012
  Continuity Error (%) .....         4.948
  
  
  *************************
  Highest Continuity Errors
  *************************
  Node T2 (20.34%)
  Node T3 (14.11%)
  Node T4 (10.07%)
  Node T5 (7.79%)
  Node J12 (7.67%)
  
  
  ***************************
  Time-Step Critical Elements
  ***************************
  None
  
  
  ********************************
  Highest Flow Instability Indexes
  ********************************
  All links are stable.
  
  
  *************************
  Routing Time Step Summary
  *************************
  Minimum Time Step           :     2.41 sec
  Average Time Step           :     5.00 sec
  Maximum Time Step           :     5.00 sec
  Percent in Steady State     :    -0.00
  Average Iterations per Step :     2.08
  Percent Not Converging      :     0.09
  
  
  ***************************
  Subcatchment Runoff Summary
  ***************************
  
  ------------------------------------------------------------------------------------------------------------------------------
                            Total      Total      Total      Total     Imperv       Perv      Total       Total     Peak  Runoff
                           Precip      Runon       Evap      Infil     Runoff     Runoff     Runoff      Runoff   Runoff   Coeff
  Subcatchment                 mm         mm         mm         mm         mm         mm         mm    10^6 ltr      CMS
  ------------------------------------------------------------------------------------------------------------------------------
  SC01                      11.64       0.00       0.00       0.00      11.61       0.00      11.61        3.83     1.27   0.997
  SC02                      11.18       0.00       0.00       0.00      11.13       0.00      11.13        2.53     0.43   0.995
  SC03                      13.07       0.00       0.00       0.00      13.05       0.00      13.05        2.35     0.97   0.998
  SC04                      11.18       0.00       0.00       0.00      11.07       0.00      11.07        0.76     0.08   0.990
  SC05                      11.64       0.00       0.00       0.00      11.60       0.00      11.60        1.81     0.56   0.996
  SC06                       9.83       0.00       0.00       0.00       9.69       0.00       9.69        3.16     0.44   0.986
  SC07                      11.18       0.00       0.00       0.00      11.07       0.00      11.07        0.53     0.06   0.990
  SC08                      13.07       0.00       0.00       0.00      13.01       0.00      13.01        3.64     0.93   0.995
  SC09                       9.83       0.00       0.00       0.00       9.75       0.00       9.75        0.67     0.13   0.991
  SC010                     11.64       0.00       0.00       0.00      11.58       0.00      11.58        1.36     0.36   0.995
  
  
  ******************
  Node Depth Summary
  ******************
  
  ---------------------------------------------------------------------------------
                                 Average  Maximum  Maximum  Time of Max    Reported
                                   Depth    Depth      HGL   Occurrence   Max Depth
  Node                 Type       Meters   Meters   Meters  days hr:min      Meters
  ---------------------------------------------------------------------------------
  J1                   JUNCTION     0.05     0.24    34.24     0  15:21        0.24
  J3                   JUNCTION     0.08     0.12    18.12     0  10:31        0.12
  CSO7                 JUNCTION     0.07     0.40    34.40     0  13:12        0.31
  J5                   JUNCTION     0.05     0.13    32.13     0  13:12        0.13
  CSO9                 JUNCTION     0.08     2.00    42.00     0  15:00        2.00
  J8                   JUNCTION     0.08     0.24    36.24     0  15:03        0.24
  CSO8                 JUNCTION     0.12     2.00    34.00     0  12:50        2.00
  J10                  JUNCTION     0.07     0.34    29.34     0  12:57        0.34
  J13                  JUNCTION     0.05     0.17    29.17     0  15:16        0.17
  J15                  JUNCTION     0.13     0.38    15.38     0  15:24        0.38
  J16                  JUNCTION     0.05     0.26    30.26     0  15:21        0.26
  CSO10                JUNCTION     0.09     1.00    31.00     0  15:16        1.00
  J12                  JUNCTION     0.50     1.02    27.02     0  13:20        1.02
  J4                   JUNCTION     0.09     0.26    33.26     0  13:17        0.26
  J6                   JUNCTION     0.05     0.07    25.07     0  14:24        0.07
  J2                   JUNCTION     0.06     0.08    25.08     0  13:42        0.08
  J19                  JUNCTION     0.12     0.17     8.17     0  15:25        0.17
  J9                   JUNCTION     0.08     0.11    29.11     0  13:38        0.11
  J14                  JUNCTION     0.08     0.13    20.13     0  10:30        0.13
  J17                  JUNCTION     0.05     0.08    20.08     0  16:03        0.08
  J7                   JUNCTION     0.06     0.21    39.21     0  15:04        0.21
  J11                  JUNCTION     0.06     0.30    31.30     0  13:18        0.30
  J18                  JUNCTION     0.04     0.16    29.16     0  15:27        0.16
  Out_to_WWTP          OUTFALL      0.12     0.17     6.17     0  13:50        0.17
  T5                   STORAGE      2.34     5.00    32.00     0  12:55        5.00
  T4                   STORAGE      2.52     5.00    32.00     0  13:38        5.00
  T6                   STORAGE      2.77     5.00    36.00     0  10:18        5.00
  T3                   STORAGE      2.77     5.00    27.00     0  13:16        5.00
  T2                   STORAGE      2.55     5.00    26.00     0  15:07        5.00
  T1                   STORAGE      2.19     5.00    15.00     0  12:42        5.00
  
  
  *******************
  Node Inflow Summary
  *******************
  
  -------------------------------------------------------------------------------------------------
                                  Maximum  Maximum                  Lateral       Total        Flow
                                  Lateral    Total  Time of Max      Inflow      Inflow     Balance
                                   Inflow   Inflow   Occurrence      Volume      Volume       Error
  Node                 Type           CMS      CMS  days hr:min    10^6 ltr    10^6 ltr     Percent
  -------------------------------------------------------------------------------------------------
  J1                   JUNCTION     0.579    0.579     0  15:21         2.9         2.9      -0.031
  J3                   JUNCTION     0.000    0.133     0  10:30           0        6.83       0.372
  CSO7                 JUNCTION     0.067    0.067     0  13:11        1.09        1.09       0.023
  J5                   JUNCTION     0.087    0.141     0  13:11        1.01         2.1       0.004
  CSO9                 JUNCTION     0.137    0.137     0  15:01        1.05        1.05       0.004
  J8                   JUNCTION     0.468    0.547     0  15:01        4.99        6.04       0.006
  CSO8                 JUNCTION     0.944    0.944     0  12:56        4.09        4.09      -0.022
  J10                  JUNCTION     0.985    1.444     0  12:56         3.1         6.9      -0.177
  J13                  JUNCTION     0.440    0.440     0  15:06        3.44        3.44      -0.111
  J15                  JUNCTION     0.000    1.536     0  15:21           0        14.8       0.423
  J16                  JUNCTION     1.286    1.286     0  15:21        4.91        4.91      -0.099
  CSO10                JUNCTION     0.362    0.362     0  15:21        1.63        1.63      -0.025
  J12                  JUNCTION     0.000    1.337     0  12:57           0        10.5       8.311
  J4                   JUNCTION     0.000    0.063     0  13:11           0        1.09       0.084
  J6                   JUNCTION     0.000    0.028     0  13:38           0        1.34       0.261
  J2                   JUNCTION     0.000    0.039     0  12:55           0        1.93       0.222
  J19                  JUNCTION     0.000    0.271     0  12:42           0        12.6       0.068
  J9                   JUNCTION     0.000    0.075     0  10:40           0        3.65       0.301
  J14                  JUNCTION     0.000    0.093     0  10:30           0        3.56       0.122
  J17                  JUNCTION     0.000    0.033     0  15:07           0        1.54       0.373
  J7                   JUNCTION     0.000    0.124     0  15:02           0        1.05       0.091
  J11                  JUNCTION     0.000    0.486     0  13:18           0         3.8       0.051
  J18                  JUNCTION     0.000    0.202     0  15:27           0        1.59      -0.019
  Out_to_WWTP          OUTFALL      0.000    0.271     0  15:25           0        12.6       0.000
  T5                   STORAGE      0.000    0.534     0  15:21           0         2.9       8.448
  T4                   STORAGE      0.000    0.137     0  13:12           0         2.1      11.202
  T6                   STORAGE      0.000    0.523     0  15:04           0        6.04       6.322
  T3                   STORAGE      0.000    0.984     0  12:57           0        9.74      16.432
  T2                   STORAGE      0.000    0.386     0  15:17           0        3.45      25.534
  T1                   STORAGE      0.000    1.274     0  15:24           0        14.8       2.134
  
  
  **********************
  Node Surcharge Summary
  **********************
  
  Surcharging occurs when water rises above the top of the highest conduit.
  ---------------------------------------------------------------------
                                               Max. Height   Min. Depth
                                   Hours       Above Crown    Below Rim
  Node                 Type      Surcharged         Meters       Meters
  ---------------------------------------------------------------------
  CSO7                 JUNCTION        0.05          0.149        0.795
  CSO9                 JUNCTION        0.26          1.682        0.000
  CSO8                 JUNCTION        0.79          1.547        0.000
  CSO10                JUNCTION        0.25          0.560        0.000
  
  
  *********************
  Node Flooding Summary
  *********************
  
  Flooding refers to all water that overflows a node, whether it ponds or not.
  --------------------------------------------------------------------------
                                                             Total   Maximum
                                 Maximum   Time of Max       Flood    Ponded
                        Hours       Rate    Occurrence      Volume     Depth
  Node                 Flooded       CMS   days hr:min    10^6 ltr    Meters
  --------------------------------------------------------------------------
  CSO9                    0.03     0.015      0  15:01       0.001     0.000
  CSO8                    0.44     0.460      0  12:56       0.289     0.000
  CSO10                   0.19     0.160      0  15:21       0.041     0.000
  T5                      1.78     0.495      0  15:21       0.521     0.000
  T4                      2.33     0.105      0  15:18       0.262     0.000
  T6                      5.42     0.447      0  15:04       1.790     0.000
  T3                      8.07     0.804      0  13:22       2.208     0.000
  T2                      1.16     0.352      0  15:17       0.478     0.000
  T1                      1.71     1.003      0  15:24       1.636     0.000
  
  
  **********************
  Storage Volume Summary
  **********************
  
  --------------------------------------------------------------------------------------------------
                         Average     Avg  Evap Exfil       Maximum     Max    Time of Max    Maximum
                          Volume    Pcnt  Pcnt  Pcnt        Volume    Pcnt     Occurrence    Outflow
  Storage Unit           1000 m3    Full  Loss  Loss       1000 m3    Full    days hr:min        CMS
  --------------------------------------------------------------------------------------------------
  T5                       0.234      47     0     0         0.500     100       0  12:55      0.039
  T4                       0.252      50     0     0         0.500     100       0  13:38      0.028
  T6                       0.333      55     0     0         0.600     100       0  10:18      0.075
  T3                       1.439      55     0     0         2.600     100       0  13:16      0.093
  T2                       0.509      51     0     0         1.000     100       0  15:07      0.033
  T1                       0.306      44     0     0         0.700     100       0  12:42      0.271
  
  
  ***********************
  Outfall Loading Summary
  ***********************
  
  -----------------------------------------------------------
                         Flow       Avg       Max       Total
                         Freq      Flow      Flow      Volume
  Outfall Node           Pcnt       CMS       CMS    10^6 ltr
  -----------------------------------------------------------
  Out_to_WWTP           99.43     0.149     0.271      12.581
  -----------------------------------------------------------
  System                99.43     0.149     0.271      12.581
  
  
  ********************
  Link Flow Summary
  ********************
  
  -----------------------------------------------------------------------------
                                 Maximum  Time of Max   Maximum    Max/    Max/
                                  |Flow|   Occurrence   |Veloc|    Full    Full
  Link                 Type          CMS  days hr:min     m/sec    Flow   Depth
  -----------------------------------------------------------------------------
  C1                   CONDUIT     0.039     0  13:42      1.05    0.01    0.10
  C6                   CONDUIT     0.059     0  13:18      1.27    0.94    0.64
  C2                   CONDUIT     0.028     0  14:24      1.00    0.03    0.16
  C9                   CONDUIT     0.108     0  15:04      1.28    0.37    0.45
  C16                  CONDUIT     0.488     0  13:12      1.79    0.05    0.16
  C3                   CONDUIT     0.093     0  10:30      1.66    0.04    0.12
  C19                  CONDUIT     0.033     0  16:03      0.70    0.01    0.23
  C11                  CONDUIT     0.132     0  10:31      1.46    0.01    0.12
  C20                  CONDUIT     1.177     0  15:21      4.73    0.04    0.16
  C22                  CONDUIT     0.202     0  15:27      1.52    0.09    0.34
  C12                  CONDUIT     0.075     0  13:38      1.05    0.01    0.28
  C17                  CONDUIT     1.261     0  12:57      3.58    0.06    0.32
  C10                  CONDUIT     0.523     0  15:04      0.94    0.05    0.58
  C13                  CONDUIT     0.984     0  12:57      0.92    0.06    0.75
  C18                  CONDUIT     0.386     0  15:17      1.01    0.01    0.54
  C23                  CONDUIT     1.274     0  15:24      1.09    0.14    0.63
  C4                   CONDUIT     0.534     0  15:21      1.13    0.13    0.62
  C7                   CONDUIT     0.137     0  13:12      0.82    0.03    0.56
  C14                  CONDUIT     0.271     0  15:25      2.08    0.02    0.09
  C5                   CONDUIT     0.063     0  13:11      1.46    1.07    1.00
  C8                   CONDUIT     0.124     0  15:02      1.84    1.56    0.83
  C15                  CONDUIT     0.486     0  13:18      3.68    1.55    0.83
  C21                  CONDUIT     0.202     0  15:27      1.99    1.16    0.69
  V4                   ORIFICE     0.028     0  13:38                      0.35
  V5                   ORIFICE     0.039     0  12:55                      1.00
  V1                   ORIFICE     0.271     0  12:42                      1.00
  V6                   ORIFICE     0.075     0  10:40                      0.43
  V3                   ORIFICE     0.093     0  10:30                      0.65
  V2                   ORIFICE     0.033     0  15:07                      0.24
  
  
  ***************************
  Flow Classification Summary
  ***************************
  
  -------------------------------------------------------------------------------------
                      Adjusted    ---------- Fraction of Time in Flow Class ---------- 
                       /Actual         Up    Down  Sub   Sup   Up    Down  Norm  Inlet 
  Conduit               Length    Dry  Dry   Dry   Crit  Crit  Crit  Crit  Ltd   Ctrl  
  -------------------------------------------------------------------------------------
  C1                      1.00   0.00  0.00  0.00  0.16  0.84  0.00  0.00  0.96  0.00
  C6                      1.00   0.00  0.00  0.00  0.01  0.99  0.00  0.00  0.00  0.00
  C2                      1.00   0.00  0.00  0.00  0.40  0.60  0.00  0.00  0.98  0.00
  C9                      1.00   0.00  0.00  0.00  1.00  0.00  0.00  0.00  1.00  0.00
  C16                     1.00   0.00  0.04  0.00  0.58  0.38  0.00  0.00  0.52  0.00
  C3                      1.00   0.00  0.00  0.00  0.04  0.96  0.00  0.00  0.66  0.00
  C19                     1.00   0.00  0.00  0.00  1.00  0.00  0.00  0.00  1.00  0.00
  C11                     1.00   0.00  0.00  0.00  0.15  0.84  0.00  0.00  1.00  0.00
  C20                     1.00   0.00  0.00  0.00  0.76  0.24  0.00  0.00  0.99  0.00
  C22                     1.00   0.00  0.00  0.00  0.93  0.07  0.00  0.00  1.00  0.00
  C12                     1.00   0.00  0.00  0.00  0.93  0.07  0.00  0.00  1.00  0.00
  C17                     1.00   0.00  0.00  0.00  0.50  0.50  0.00  0.00  0.98  0.00
  C10                     1.00   0.00  0.00  0.00  0.97  0.03  0.00  0.00  0.98  0.00
  C13                     1.00   0.00  0.00  0.00  0.84  0.15  0.00  0.00  0.47  0.00
  C18                     1.00   0.00  0.00  0.00  0.96  0.04  0.00  0.00  0.98  0.00
  C23                     1.00   0.00  0.00  0.00  0.77  0.23  0.00  0.00  0.96  0.00
  C4                      1.00   0.00  0.00  0.00  0.82  0.18  0.00  0.00  0.98  0.00
  C7                      1.00   0.00  0.00  0.00  0.95  0.05  0.00  0.00  0.97  0.00
  C14                     1.00   0.00  0.00  0.00  0.00  1.00  0.00  0.00  0.39  0.00
  C5                      1.00   0.00  0.00  0.00  0.93  0.07  0.00  0.00  0.98  0.00
  C8                      1.00   0.00  0.00  0.00  0.23  0.77  0.00  0.00  0.01  0.00
  C15                     1.00   0.04  0.00  0.00  0.00  0.95  0.00  0.00  0.01  0.00
  C21                     1.00   0.00  0.00  0.00  0.00  1.00  0.00  0.00  0.00  0.00
  
  
  *************************
  Conduit Surcharge Summary
  *************************
  
  ----------------------------------------------------------------------------
                                                           Hours        Hours 
                         --------- Hours Full --------   Above Full   Capacity
  Conduit                Both Ends  Upstream  Dnstream   Normal Flow   Limited
  ----------------------------------------------------------------------------
  C10                         0.01      0.01     15.07      0.01         0.01
  C13                         0.01      0.01     13.61      0.01         0.01
  C18                         0.01      0.01     13.59      0.01         0.01
  C23                         0.01      0.01     13.94      0.01         0.01
  C4                          0.01      0.01     14.16      0.01         0.01
  C7                          0.01      0.01     14.50      0.01         0.01
  C5                          0.02      0.05      0.08      0.22         0.02
  C8                          0.01      0.26      0.01      0.27         0.01
  C15                         0.01      0.79      0.01      0.89         0.01
  C21                         0.01      0.25      0.01      0.23         0.01
  

  Analysis begun on:  Mon Sep 20 19:43:42 2021
  Analysis ended on:  Mon Sep 20 19:43:43 2021
  Total elapsed time: 00:00:01