
  EPA STORM WATER MANAGEMENT MODEL - VERSION 5.1 (Build 5.3.0.dev0)
  --------------------------------------------------------------

  WARNING 09: time series interval greater than recording interval for Rain Gage RG1
  WARNING 09: time series interval greater than recording interval for Rain Gage RG2
  WARNING 09: time series interval greater than recording interval for Rain Gage RG3
  WARNING 09: time series interval greater than recording interval for Rain Gage RG4
  
  *********************************************************
  NOTE: The summary statistics displayed in this report are
  based on results found at every computational time step,  
  not just on results from each reporting time step.
  *********************************************************
  
  ****************
  Analysis Options
  ****************
  Flow Units ............... CMS
  Process Models:
    Rainfall/Runoff ........ YES
    RDII ................... NO
    Snowmelt ............... NO
    Groundwater ............ NO
    Flow Routing ........... YES
    Ponding Allowed ........ YES
    Water Quality .......... NO
  Infiltration Method ...... HORTON
  Flow Routing Method ...... DYNWAVE
  Surcharge Method ......... EXTRAN
  Starting Date ............ 08/28/2015 00:00:00
  Ending Date .............. 08/28/2015 23:40:00
  Antecedent Dry Days ...... 0.0
  Report Time Step ......... 00:01:00
  Wet Time Step ............ 00:01:00
  Dry Time Step ............ 00:01:00
  Routing Time Step ........ 5.00 sec
  Variable Time Step ....... YES
  Maximum Trials ........... 8
  Number of Threads ........ 1
  Head Tolerance ........... 0.001500 m
  
  
  **************************        Volume         Depth
  Runoff Quantity Continuity     hectare-m            mm
  **************************     ---------       -------
  Total Precipitation ......         2.178        12.085
  Evaporation Loss .........         0.000         0.000
  Infiltration Loss ........         0.000         0.000
  Surface Runoff ...........         2.165        12.016
  Final Storage ............         0.015         0.083
  Continuity Error (%) .....        -0.110
  
  
  **************************        Volume        Volume
  Flow Routing Continuity        hectare-m      10^6 ltr
  **************************     ---------     ---------
  Dry Weather Inflow .......         0.758         7.576
  Wet Weather Inflow .......         2.165        21.652
  Groundwater Inflow .......         0.000         0.000
  RDII Inflow ..............         0.000         0.000
  External Inflow ..........         0.000         0.000
  External Outflow .........         1.329        13.289
  Flooding Loss ............         0.777         7.771
  Evaporation Loss .........         0.000         0.000
  Exfiltration Loss ........         0.000         0.000
  Initial Stored Volume ....         0.000         0.000
  Final Stored Volume ......         0.689         6.888
  Continuity Error (%) .....         4.376
  
  
  *************************
  Highest Continuity Errors
  *************************
  Node T2 (19.12%)
  Node T3 (13.27%)
  Node T4 (9.24%)
  Node J12 (7.15%)
  Node T5 (6.94%)
  
  
  ***************************
  Time-Step Critical Elements
  ***************************
  None
  
  
  ********************************
  Highest Flow Instability Indexes
  ********************************
  All links are stable.
  
  
  *************************
  Routing Time Step Summary
  *************************
  Minimum Time Step           :     4.50 sec
  Average Time Step           :     5.00 sec
  Maximum Time Step           :     5.00 sec
  Percent in Steady State     :     0.00
  Average Iterations per Step :     2.19
  Percent Not Converging      :     0.88
  
  
  ***************************
  Subcatchment Runoff Summary
  ***************************
  
  ------------------------------------------------------------------------------------------------------------------------------
                            Total      Total      Total      Total     Imperv       Perv      Total       Total     Peak  Runoff
                           Precip      Runon       Evap      Infil     Runoff     Runoff     Runoff      Runoff   Runoff   Coeff
  Subcatchment                 mm         mm         mm         mm         mm         mm         mm    10^6 ltr      CMS
  ------------------------------------------------------------------------------------------------------------------------------
  SC01                      11.88       0.00       0.00       0.00      11.83       0.00      11.83        3.90     0.85   0.996
  SC02                      11.70       0.00       0.00       0.00      11.65       0.00      11.65        2.65     0.52   0.995
  SC03                      13.41       0.00       0.00       0.00      13.39       0.00      13.39        2.41     0.57   0.998
  SC04                      11.70       0.00       0.00       0.00      11.59       0.00      11.59        0.80     0.11   0.991
  SC05                      11.88       0.00       0.00       0.00      11.83       0.00      11.83        1.85     0.39   0.996
  SC06                      11.19       0.00       0.00       0.00      11.06       0.00      11.06        3.60     0.61   0.989
  SC07                      11.70       0.00       0.00       0.00      11.59       0.00      11.59        0.55     0.08   0.991
  SC08                      13.41       0.00       0.00       0.00      13.34       0.00      13.34        3.74     0.63   0.995
  SC09                      11.19       0.00       0.00       0.00      11.11       0.00      11.11        0.77     0.15   0.993
  SC010                     11.88       0.00       0.00       0.00      11.82       0.00      11.82        1.39     0.27   0.995
  
  
  ******************
  Node Depth Summary
  ******************
  
  ---------------------------------------------------------------------------------
                                 Average  Maximum  Maximum  Time of Max    Reported
                                   Depth    Depth      HGL   Occurrence   Max Depth
  Node                 Type       Meters   Meters   Meters  days hr:min      Meters
  ---------------------------------------------------------------------------------
  J1                   JUNCTION     0.05     0.20    34.20     0  09:46        0.20
  J3                   JUNCTION     0.09     0.12    18.12     0  10:02        0.12
  CSO7                 JUNCTION     0.10     1.20    35.20     0  09:20        1.20
  J5                   JUNCTION     0.05     0.14    32.14     0  09:27        0.14
  CSO9                 JUNCTION     0.10     2.00    42.00     0  09:40        2.00
  J8                   JUNCTION     0.08     0.28    36.28     0  09:52        0.28
  CSO8                 JUNCTION     0.13     2.00    34.00     0  09:06        2.00
  J10                  JUNCTION     0.07     0.29    29.29     0  09:17        0.29
  J13                  JUNCTION     0.05     0.19    29.19     0  09:21        0.19
  J15                  JUNCTION     0.13     0.34    15.34     0  09:49        0.34
  J16                  JUNCTION     0.05     0.22    30.22     0  09:46        0.22
  CSO10                JUNCTION     0.09     1.00    31.00     0  09:21        1.00
  J12                  JUNCTION     0.55     1.05    27.05     0  14:30        1.05
  J4                   JUNCTION     0.10     1.45    34.45     0  09:21        0.76
  J6                   JUNCTION     0.05     0.07    25.07     0  11:29        0.07
  J2                   JUNCTION     0.06     0.08    25.08     0  10:42        0.08
  J19                  JUNCTION     0.12     0.17     8.17     0  09:38        0.17
  J9                   JUNCTION     0.08     0.11    29.11     0  11:21        0.11
  J14                  JUNCTION     0.09     0.14    20.14     0  10:00        0.14
  J17                  JUNCTION     0.05     0.08    20.08     0  15:11        0.08
  J7                   JUNCTION     0.06     0.23    39.23     0  09:53        0.23
  J11                  JUNCTION     0.07     0.30    31.30     0  09:27        0.29
  J18                  JUNCTION     0.04     0.16    29.16     0  09:51        0.16
  Out_to_WWTP          OUTFALL      0.12     0.17     6.17     0  15:21        0.17
  T5                   STORAGE      2.61     5.00    32.00     0  09:55        5.00
  T4                   STORAGE      2.76     5.00    32.00     0  10:44        5.00
  T6                   STORAGE      2.81     5.00    36.00     0  09:27        5.00
  T3                   STORAGE      3.00     5.00    27.00     0  14:00        5.00
  T2                   STORAGE      2.83     5.00    26.00     0  14:17        5.00
  T1                   STORAGE      2.33     5.00    15.00     0  09:37        5.00
  
  
  *******************
  Node Inflow Summary
  *******************
  
  -------------------------------------------------------------------------------------------------
                                  Maximum  Maximum                  Lateral       Total        Flow
                                  Lateral    Total  Time of Max      Inflow      Inflow     Balance
                                   Inflow   Inflow   Occurrence      Volume      Volume       Error
  Node                 Type           CMS      CMS  days hr:min    10^6 ltr    10^6 ltr     Percent
  -------------------------------------------------------------------------------------------------
  J1                   JUNCTION     0.408    0.408     0  09:46        2.94        2.94      -0.030
  J3                   JUNCTION     0.000    0.160     0  10:00           0        7.29       0.344
  CSO7                 JUNCTION     0.087    0.087     0  09:21        1.12        1.12       0.019
  J5                   JUNCTION     0.117    0.187     0  09:26        1.05        2.16       0.002
  CSO9                 JUNCTION     0.158    0.158     0  09:46        1.15        1.15      -0.002
  J8                   JUNCTION     0.636    0.748     0  09:46        5.43        6.57       0.003
  CSO8                 JUNCTION     0.641    0.641     0  14:26        4.18        4.18      -0.014
  J10                  JUNCTION     0.578    0.973     0  09:16        3.16        7.29      -0.076
  J13                  JUNCTION     0.536    0.536     0  09:21        3.56        3.56      -0.109
  J15                  JUNCTION     0.000    1.122     0  09:47           0        15.6       0.385
  J16                  JUNCTION     0.865    0.865     0  09:46        4.98        4.98      -0.052
  CSO10                JUNCTION     0.279    0.279     0  09:46        1.66        1.66      -0.024
  J12                  JUNCTION     0.000    0.947     0  14:28           0        11.1       7.701
  J4                   JUNCTION     0.000    0.081     0  09:21           0        1.11       0.064
  J6                   JUNCTION     0.000    0.028     0  10:44           0        1.43       0.242
  J2                   JUNCTION     0.000    0.039     0  09:55           0        2.07       0.199
  J19                  JUNCTION     0.000    0.271     0  09:37           0        13.3       0.063
  J9                   JUNCTION     0.000    0.075     0  09:50           0        3.77       0.291
  J14                  JUNCTION     0.000    0.108     0  10:00           0         3.8       0.114
  J17                  JUNCTION     0.000    0.033     0  14:18           0         1.7       0.361
  J7                   JUNCTION     0.000    0.127     0  09:53           0        1.14       0.077
  J11                  JUNCTION     0.000    0.486     0  09:23           0        4.13       0.033
  J18                  JUNCTION     0.000    0.202     0  09:51           0        1.64      -0.014
  Out_to_WWTP          OUTFALL      0.000    0.271     0  09:39           0        13.3       0.000
  T5                   STORAGE      0.000    0.374     0  09:46           0        2.94       7.461
  T4                   STORAGE      0.000    0.181     0  09:27           0        2.16      10.184
  T6                   STORAGE      0.000    0.715     0  09:52           0        6.57       5.055
  T3                   STORAGE      0.000    1.187     0  14:32           0        10.3      15.305
  T2                   STORAGE      0.000    0.493     0  09:21           0        3.56      23.642
  T1                   STORAGE      0.000    0.998     0  09:49           0        15.5       1.904
  
  
  **********************
  Node Surcharge Summary
  **********************
  
  Surcharging occurs when water rises above the top of the highest conduit.
  ---------------------------------------------------------------------
                                               Max. Height   Min. Depth
                                   Hours       Above Crown    Below Rim
  Node                 Type      Surcharged         Meters       Meters
  ---------------------------------------------------------------------
  CSO7                 JUNCTION        0.70          0.945        0.000
  CSO9                 JUNCTION        0.67          1.682        0.000
  CSO8                 JUNCTION        1.09          1.547        0.000
  CSO10                JUNCTION        0.52          0.560        0.000
  J4                   JUNCTION        0.64          1.148        0.552
  
  
  *********************
  Node Flooding Summary
  *********************
  
  Flooding refers to all water that overflows a node, whether it ponds or not.
  --------------------------------------------------------------------------
                                                             Total   Maximum
                                 Maximum   Time of Max       Flood    Ponded
                        Hours       Rate    Occurrence      Volume     Depth
  Node                 Flooded       CMS   days hr:min    10^6 ltr    Meters
  --------------------------------------------------------------------------
  CSO7                    0.35     0.019      0  09:21       0.007     0.000
  CSO9                    0.13     0.033      0  09:46       0.006     0.000
  CSO8                    0.28     0.161      0  14:26       0.053     0.000
  CSO10                   0.24     0.077      0  09:46       0.019     0.000
  T5                      2.46     0.203      0  14:27       0.462     0.000
  T4                      4.52     0.096      0  14:37       0.259     0.000
  T6                      4.80     0.640      0  09:52       2.280     0.000
  T3                      6.56     1.127      0  14:32       2.504     0.000
  T2                      1.29     0.346      0  14:32       0.481     0.000
  T1                      1.79     0.728      0  09:49       1.702     0.000
  
  
  **********************
  Storage Volume Summary
  **********************
  
  --------------------------------------------------------------------------------------------------
                         Average     Avg  Evap Exfil       Maximum     Max    Time of Max    Maximum
                          Volume    Pcnt  Pcnt  Pcnt        Volume    Pcnt     Occurrence    Outflow
  Storage Unit           1000 m3    Full  Loss  Loss       1000 m3    Full    days hr:min        CMS
  --------------------------------------------------------------------------------------------------
  T5                       0.261      52     0     0         0.500     100       0  09:55      0.039
  T4                       0.276      55     0     0         0.500     100       0  10:44      0.028
  T6                       0.337      56     0     0         0.600     100       0  09:27      0.075
  T3                       1.559      60     0     0         2.600     100       0  14:00      0.108
  T2                       0.567      57     0     0         1.000     100       0  14:17      0.033
  T1                       0.326      47     0     0         0.700     100       0  09:37      0.271
  
  
  ***********************
  Outfall Loading Summary
  ***********************
  
  -----------------------------------------------------------
                         Flow       Avg       Max       Total
                         Freq      Flow      Flow      Volume
  Outfall Node           Pcnt       CMS       CMS    10^6 ltr
  -----------------------------------------------------------
  Out_to_WWTP           99.43     0.157     0.271      13.289
  -----------------------------------------------------------
  System                99.43     0.157     0.271      13.289
  
  
  ********************
  Link Flow Summary
  ********************
  
  -----------------------------------------------------------------------------
                                 Maximum  Time of Max   Maximum    Max/    Max/
                                  |Flow|   Occurrence   |Veloc|    Full    Full
  Link                 Type          CMS  days hr:min     m/sec    Flow   Depth
  -----------------------------------------------------------------------------
  C1                   CONDUIT     0.039     0  10:42      1.04    0.01    0.10
  C6                   CONDUIT     0.071     0  09:27      1.29    1.12    0.74
  C2                   CONDUIT     0.028     0  11:29      1.01    0.03    0.16
  C9                   CONDUIT     0.126     0  09:53      1.28    0.43    0.50
  C16                  CONDUIT     0.484     0  09:22      1.76    0.05    0.15
  C3                   CONDUIT     0.106     0  10:00      1.73    0.04    0.13
  C19                  CONDUIT     0.033     0  15:11      0.70    0.01    0.19
  C11                  CONDUIT     0.154     0  10:02      1.46    0.01    0.11
  C20                  CONDUIT     0.786     0  09:46      3.11    0.02    0.14
  C22                  CONDUIT     0.202     0  09:51      1.55    0.09    0.31
  C12                  CONDUIT     0.075     0  11:21      0.73    0.01    0.29
  C17                  CONDUIT     0.891     0  09:17      3.13    0.04    0.33
  C10                  CONDUIT     0.715     0  09:52      0.94    0.07    0.59
  C13                  CONDUIT     1.187     0  14:32      0.89    0.07    0.76
  C18                  CONDUIT     0.493     0  09:21      1.01    0.02    0.55
  C23                  CONDUIT     0.998     0  09:49      0.88    0.11    0.61
  C4                   CONDUIT     0.374     0  09:46      1.13    0.09    0.60
  C7                   CONDUIT     0.181     0  09:27      0.82    0.04    0.57
  C14                  CONDUIT     0.271     0  09:39      2.08    0.02    0.09
  C5                   CONDUIT     0.081     0  09:21      1.58    1.38    1.00
  C8                   CONDUIT     0.127     0  09:53      1.78    1.60    0.86
  C15                  CONDUIT     0.486     0  09:23      3.55    1.55    0.83
  C21                  CONDUIT     0.202     0  09:51      1.86    1.16    0.69
  V4                   ORIFICE     0.028     0  10:44                      0.35
  V5                   ORIFICE     0.039     0  09:55                      1.00
  V1                   ORIFICE     0.271     0  09:37                      1.00
  V6                   ORIFICE     0.075     0  09:50                      0.43
  V3                   ORIFICE     0.108     0  10:00                      0.65
  V2                   ORIFICE     0.033     0  14:18                      0.24
  
  
  ***************************
  Flow Classification Summary
  ***************************
  
  -------------------------------------------------------------------------------------
                      Adjusted    ---------- Fraction of Time in Flow Class ---------- 
                       /Actual         Up    Down  Sub   Sup   Up    Down  Norm  Inlet 
  Conduit               Length    Dry  Dry   Dry   Crit  Crit  Crit  Crit  Ltd   Ctrl  
  -------------------------------------------------------------------------------------
  C1                      1.00   0.00  0.00  0.00  0.16  0.84  0.00  0.00  0.96  0.00
  C6                      1.00   0.00  0.00  0.00  0.04  0.96  0.00  0.00  0.00  0.00
  C2                      1.00   0.00  0.00  0.00  0.37  0.63  0.00  0.00  0.98  0.00
  C9                      1.00   0.00  0.00  0.00  1.00  0.00  0.00  0.00  1.00  0.00
  C16                     1.00   0.00  0.10  0.00  0.43  0.48  0.00  0.00  0.40  0.00
  C3                      1.00   0.00  0.00  0.00  0.04  0.96  0.00  0.00  0.63  0.00
  C19                     1.00   0.00  0.00  0.00  1.00  0.00  0.00  0.00  1.00  0.00
  C11                     1.00   0.00  0.00  0.00  0.14  0.86  0.00  0.00  1.00  0.00
  C20                     1.00   0.00  0.00  0.00  0.71  0.29  0.00  0.00  0.99  0.00
  C22                     1.00   0.00  0.00  0.00  0.93  0.07  0.00  0.00  1.00  0.00
  C12                     1.00   0.00  0.00  0.00  0.98  0.02  0.00  0.00  0.99  0.00
  C17                     1.00   0.00  0.00  0.00  0.65  0.35  0.00  0.00  0.98  0.00
  C10                     1.00   0.00  0.00  0.00  0.97  0.03  0.00  0.00  0.98  0.00
  C13                     1.00   0.00  0.00  0.00  0.85  0.15  0.00  0.00  0.33  0.00
  C18                     1.00   0.00  0.00  0.00  0.91  0.09  0.00  0.00  0.98  0.00
  C23                     1.00   0.00  0.00  0.00  0.81  0.19  0.00  0.00  0.96  0.00
  C4                      1.00   0.00  0.00  0.00  0.85  0.15  0.00  0.00  0.98  0.00
  C7                      1.00   0.00  0.00  0.00  0.95  0.05  0.00  0.00  0.97  0.00
  C14                     1.00   0.00  0.00  0.00  0.00  1.00  0.00  0.00  0.48  0.00
  C5                      1.00   0.00  0.00  0.00  0.92  0.08  0.00  0.00  0.95  0.00
  C8                      1.00   0.00  0.00  0.00  0.22  0.78  0.00  0.00  0.01  0.00
  C15                     1.00   0.10  0.00  0.00  0.00  0.90  0.00  0.00  0.01  0.00
  C21                     1.00   0.00  0.00  0.00  0.01  0.99  0.00  0.00  0.00  0.00
  
  
  *************************
  Conduit Surcharge Summary
  *************************
  
  ----------------------------------------------------------------------------
                                                           Hours        Hours 
                         --------- Hours Full --------   Above Full   Capacity
  Conduit                Both Ends  Upstream  Dnstream   Normal Flow   Limited
  ----------------------------------------------------------------------------
  C6                          0.01      0.64      0.01      0.55         0.01
  C10                         0.01      0.01     15.75      0.01         0.01
  C13                         0.01      0.01     14.30      0.01         0.01
  C18                         0.01      0.01     14.37      0.01         0.01
  C23                         0.01      0.01     14.76      0.01         0.01
  C4                          0.01      0.01     15.06      0.01         0.01
  C7                          0.01      0.01     15.19      0.01         0.01
  C5                          0.67      0.70      0.78      0.72         0.65
  C8                          0.01      0.68      0.01      0.67         0.01
  C15                         0.01      1.09      0.01      1.14         0.01
  C21                         0.01      0.52      0.01      0.46         0.01
  

  Analysis begun on:  Mon Sep 20 20:06:51 2021
  Analysis ended on:  Mon Sep 20 20:06:51 2021
  Total elapsed time: < 1 sec