
  EPA STORM WATER MANAGEMENT MODEL - VERSION 5.1 (Build 5.3.0.dev0)
  --------------------------------------------------------------

  WARNING 09: time series interval greater than recording interval for Rain Gage RG1
  WARNING 09: time series interval greater than recording interval for Rain Gage RG2
  WARNING 09: time series interval greater than recording interval for Rain Gage RG3
  WARNING 09: time series interval greater than recording interval for Rain Gage RG4
  
  *********************************************************
  NOTE: The summary statistics displayed in this report are
  based on results found at every computational time step,  
  not just on results from each reporting time step.
  *********************************************************
  
  ****************
  Analysis Options
  ****************
  Flow Units ............... CMS
  Process Models:
    Rainfall/Runoff ........ YES
    RDII ................... NO
    Snowmelt ............... NO
    Groundwater ............ NO
    Flow Routing ........... YES
    Ponding Allowed ........ YES
    Water Quality .......... NO
  Infiltration Method ...... HORTON
  Flow Routing Method ...... DYNWAVE
  Surcharge Method ......... EXTRAN
  Starting Date ............ 08/28/2015 00:00:00
  Ending Date .............. 08/28/2015 23:40:00
  Antecedent Dry Days ...... 0.0
  Report Time Step ......... 00:01:00
  Wet Time Step ............ 00:01:00
  Dry Time Step ............ 00:01:00
  Routing Time Step ........ 5.00 sec
  Variable Time Step ....... YES
  Maximum Trials ........... 8
  Number of Threads ........ 1
  Head Tolerance ........... 0.001500 m
  
  
  **************************        Volume         Depth
  Runoff Quantity Continuity     hectare-m            mm
  **************************     ---------       -------
  Total Precipitation ......         2.759        15.310
  Evaporation Loss .........         0.000         0.000
  Infiltration Loss ........         0.000         0.000
  Surface Runoff ...........         2.733        15.168
  Final Storage ............         0.045         0.251
  Continuity Error (%) .....        -0.710
  
  
  **************************        Volume        Volume
  Flow Routing Continuity        hectare-m      10^6 ltr
  **************************     ---------     ---------
  Dry Weather Inflow .......         0.758         7.576
  Wet Weather Inflow .......         2.733        27.331
  Groundwater Inflow .......         0.000         0.000
  RDII Inflow ..............         0.000         0.000
  External Inflow ..........         0.000         0.000
  External Outflow .........         0.889         8.893
  Flooding Loss ............         1.522        15.217
  Evaporation Loss .........         0.000         0.000
  Exfiltration Loss ........         0.000         0.000
  Initial Stored Volume ....         0.000         0.000
  Final Stored Volume ......         0.826         8.260
  Continuity Error (%) .....         7.269
  
  
  *************************
  Highest Continuity Errors
  *************************
  Node T2 (29.92%)
  Node T4 (19.63%)
  Node T3 (18.21%)
  Node J12 (9.99%)
  Node T5 (9.70%)
  
  
  ***************************
  Time-Step Critical Elements
  ***************************
  None
  
  
  ********************************
  Highest Flow Instability Indexes
  ********************************
  All links are stable.
  
  
  *************************
  Routing Time Step Summary
  *************************
  Minimum Time Step           :     0.20 sec
  Average Time Step           :     5.00 sec
  Maximum Time Step           :     5.00 sec
  Percent in Steady State     :     0.00
  Average Iterations per Step :     2.05
  Percent Not Converging      :     0.21
  
  
  ***************************
  Subcatchment Runoff Summary
  ***************************
  
  ------------------------------------------------------------------------------------------------------------------------------
                            Total      Total      Total      Total     Imperv       Perv      Total       Total     Peak  Runoff
                           Precip      Runon       Evap      Infil     Runoff     Runoff     Runoff      Runoff   Runoff   Coeff
  Subcatchment                 mm         mm         mm         mm         mm         mm         mm    10^6 ltr      CMS
  ------------------------------------------------------------------------------------------------------------------------------
  SC01                      18.01       0.00       0.00       0.00      18.03       0.00      18.03        5.95     7.44   1.001
  SC02                       9.07       0.00       0.00       0.00       8.98       0.00       8.98        2.04     2.62   0.991
  SC03                      14.84       0.00       0.00       0.00      14.98       0.00      14.98        2.70     5.00   1.010
  SC04                       9.07       0.00       0.00       0.00       8.72       0.00       8.72        0.60     0.37   0.961
  SC05                      18.01       0.00       0.00       0.00      17.99       0.00      17.99        2.81     3.24   0.999
  SC06                      17.17       0.00       0.00       0.00      16.65       0.00      16.65        5.42     3.77   0.970
  SC07                       9.07       0.00       0.00       0.00       8.72       0.00       8.72        0.41     0.25   0.961
  SC08                      14.84       0.00       0.00       0.00      14.73       0.00      14.73        4.13     4.84   0.993
  SC09                      17.17       0.00       0.00       0.00      16.95       0.00      16.95        1.17     1.12   0.987
  SC010                     18.01       0.00       0.00       0.00      17.91       0.00      17.91        2.10     2.15   0.994
  
  
  ******************
  Node Depth Summary
  ******************
  
  ---------------------------------------------------------------------------------
                                 Average  Maximum  Maximum  Time of Max    Reported
                                   Depth    Depth      HGL   Occurrence   Max Depth
  Node                 Type       Meters   Meters   Meters  days hr:min      Meters
  ---------------------------------------------------------------------------------
  J1                   JUNCTION     0.05     1.68    35.68     0  20:56        1.01
  J3                   JUNCTION     0.07     0.11    18.11     0  20:57        0.11
  CSO7                 JUNCTION     0.09     1.20    35.20     0  20:45        1.20
  J5                   JUNCTION     0.04     0.21    32.21     0  20:51        0.21
  CSO9                 JUNCTION     0.12     2.00    42.00     0  20:46        2.00
  J8                   JUNCTION     0.08     0.78    36.78     0  20:57        0.77
  CSO8                 JUNCTION     0.10     2.00    34.00     0  20:40        2.00
  J10                  JUNCTION     0.06     0.66    29.66     0  20:46        0.66
  J13                  JUNCTION     0.04     0.40    29.40     0  20:46        0.40
  J15                  JUNCTION     0.12     1.08    16.08     0  20:58        1.08
  J16                  JUNCTION     0.05     0.70    30.70     0  20:51        0.62
  CSO10                JUNCTION     0.09     1.00    31.00     0  20:46        1.00
  J12                  JUNCTION     0.17     1.01    27.01     0  21:43        1.01
  J4                   JUNCTION     0.09     1.29    34.29     0  20:50        0.75
  J6                   JUNCTION     0.04     0.07    25.07     0  22:11        0.07
  J2                   JUNCTION     0.05     0.08    25.08     0  21:46        0.08
  J19                  JUNCTION     0.10     0.17     8.17     0  20:56        0.17
  J9                   JUNCTION     0.06     0.11    29.11     0  22:44        0.11
  J14                  JUNCTION     0.07     0.13    20.13     0  20:50        0.13
  J17                  JUNCTION     0.04     0.08    20.08     0  22:00        0.08
  J7                   JUNCTION     0.06     0.23    39.23     0  21:20        0.23
  J11                  JUNCTION     0.05     0.30    31.30     0  21:09        0.30
  J18                  JUNCTION     0.03     0.16    29.16     0  21:19        0.16
  Out_to_WWTP          OUTFALL      0.10     0.17     6.17     0  22:05        0.17
  T5                   STORAGE      1.41     5.00    32.00     0  20:54        5.00
  T4                   STORAGE      1.51     5.00    32.00     0  21:23        5.00
  T6                   STORAGE      2.37     5.00    36.00     0  20:53        5.00
  T3                   STORAGE      1.10     5.00    27.00     0  21:29        5.00
  T2                   STORAGE      1.27     5.00    26.00     0  21:03        5.00
  T1                   STORAGE      1.19     5.00    15.00     0  20:55        5.00
  
  
  *******************
  Node Inflow Summary
  *******************
  
  -------------------------------------------------------------------------------------------------
                                  Maximum  Maximum                  Lateral       Total        Flow
                                  Lateral    Total  Time of Max      Inflow      Inflow     Balance
                                   Inflow   Inflow   Occurrence      Volume      Volume       Error
  Node                 Type           CMS      CMS  days hr:min    10^6 ltr    10^6 ltr     Percent
  -------------------------------------------------------------------------------------------------
  J1                   JUNCTION     3.254    3.254     0  20:51         3.9         3.9      -0.039
  J3                   JUNCTION     0.000    0.133     0  20:55           0        5.17       0.543
  CSO7                 JUNCTION     0.260    0.260     0  20:46       0.979       0.979       0.005
  J5                   JUNCTION     0.370    0.421     0  20:51        0.85         1.7       0.107
  CSO9                 JUNCTION     1.129    1.129     0  20:56        1.55        1.55       0.007
  J8                   JUNCTION     3.792    3.915     0  20:56        7.25        8.16       0.099
  CSO8                 JUNCTION     4.844    4.844     0  20:46        4.57        4.57      -0.052
  J10                  JUNCTION     5.012    5.431     0  20:46        3.45        5.68      -0.356
  J13                  JUNCTION     2.636    2.636     0  20:46        2.95        2.95      -0.030
  J15                  JUNCTION     0.000    7.723     0  20:51           0        14.2       0.552
  J16                  JUNCTION     7.454    7.454     0  20:51        7.03        7.03      -0.161
  CSO10                JUNCTION     2.154    2.154     0  20:56        2.37        2.37      -0.042
  J12                  JUNCTION     0.000    4.427     0  20:47           0        8.29      11.095
  J4                   JUNCTION     0.000    0.085     0  20:48           0       0.854       0.129
  J6                   JUNCTION     0.000    0.028     0  21:23           0       0.816       0.508
  J2                   JUNCTION     0.000    0.039     0  20:54           0        1.49       0.360
  J19                  JUNCTION     0.000    0.271     0  20:55           0         8.9       0.128
  J9                   JUNCTION     0.000    0.075     0  21:00           0         2.4       0.792
  J14                  JUNCTION     0.000    0.093     0  20:50           0        2.88       0.152
  J17                  JUNCTION     0.000    0.033     0  21:03           0       0.823       0.896
  J7                   JUNCTION     0.000    0.127     0  21:20           0       0.915       0.236
  J11                  JUNCTION     0.000    0.487     0  21:09           0        2.24       0.705
  J18                  JUNCTION     0.000    0.202     0  21:19           0        1.18       0.099
  Out_to_WWTP          OUTFALL      0.000    0.271     0  20:57           0        8.89       0.000
  T5                   STORAGE      0.000    3.080     0  20:51           0         3.9      10.740
  T4                   STORAGE      0.000    0.401     0  20:51           0         1.7      24.417
  T6                   STORAGE      0.000    3.437     0  20:58           0        8.16      10.579
  T3                   STORAGE      0.000    3.583     0  20:48           0        7.47      22.258
  T2                   STORAGE      0.000    2.370     0  20:46           0        2.95      42.687
  T1                   STORAGE      0.000    4.497     0  20:53           0        14.1       4.289
  
  
  **********************
  Node Surcharge Summary
  **********************
  
  Surcharging occurs when water rises above the top of the highest conduit.
  ---------------------------------------------------------------------
                                               Max. Height   Min. Depth
                                   Hours       Above Crown    Below Rim
  Node                 Type      Surcharged         Meters       Meters
  ---------------------------------------------------------------------
  J1                   JUNCTION        0.01          0.680        0.320
  CSO7                 JUNCTION        0.55          0.945        0.000
  CSO9                 JUNCTION        0.72          1.682        0.000
  CSO8                 JUNCTION        0.58          1.547        0.000
  CSO10                JUNCTION        0.60          0.560        0.000
  J4                   JUNCTION        0.48          0.991        0.709
  
  
  *********************
  Node Flooding Summary
  *********************
  
  Flooding refers to all water that overflows a node, whether it ponds or not.
  --------------------------------------------------------------------------
                                                             Total   Maximum
                                 Maximum   Time of Max       Flood    Ponded
                        Hours       Rate    Occurrence      Volume     Depth
  Node                 Flooded       CMS   days hr:min    10^6 ltr    Meters
  --------------------------------------------------------------------------
  CSO7                    0.45     0.181      0  20:46       0.126     0.000
  CSO9                    0.58     0.995      0  20:56       0.636     0.000
  CSO8                    0.48     4.329      0  20:46       2.330     0.000
  CSO10                   0.55     1.936      0  20:56       1.200     0.000
  T5                      1.00     2.756      0  20:57       1.609     0.000
  T4                      0.81     0.094      0  21:23       0.092     0.000
  T6                      1.85     3.371      0  20:58       4.409     0.000
  T3                      1.46     0.591      0  21:36       0.416     0.000
  T2                      0.96     0.425      0  21:03       0.310     0.000
  T1                      1.02     4.138      0  20:59       4.089     0.000
  
  
  **********************
  Storage Volume Summary
  **********************
  
  --------------------------------------------------------------------------------------------------
                         Average     Avg  Evap Exfil       Maximum     Max    Time of Max    Maximum
                          Volume    Pcnt  Pcnt  Pcnt        Volume    Pcnt     Occurrence    Outflow
  Storage Unit           1000 m3    Full  Loss  Loss       1000 m3    Full    days hr:min        CMS
  --------------------------------------------------------------------------------------------------
  T5                       0.141      28     0     0         0.500     100       0  20:54      0.039
  T4                       0.151      30     0     0         0.500     100       0  21:23      0.028
  T6                       0.285      47     0     0         0.600     100       0  20:53      0.075
  T3                       0.573      22     0     0         2.600     100       0  21:29      0.487
  T2                       0.255      25     0     0         1.000     100       0  21:03      0.033
  T1                       0.167      24     0     0         0.700     100       0  20:55      0.271
  
  
  ***********************
  Outfall Loading Summary
  ***********************
  
  -----------------------------------------------------------
                         Flow       Avg       Max       Total
                         Freq      Flow      Flow      Volume
  Outfall Node           Pcnt       CMS       CMS    10^6 ltr
  -----------------------------------------------------------
  Out_to_WWTP           99.43     0.105     0.271       8.892
  -----------------------------------------------------------
  System                99.43     0.105     0.271       8.892
  
  
  ********************
  Link Flow Summary
  ********************
  
  -----------------------------------------------------------------------------
                                 Maximum  Time of Max   Maximum    Max/    Max/
                                  |Flow|   Occurrence   |Veloc|    Full    Full
  Link                 Type          CMS  days hr:min     m/sec    Flow   Depth
  -----------------------------------------------------------------------------
  C1                   CONDUIT     0.039     0  21:46      1.04    0.01    0.10
  C6                   CONDUIT     0.074     0  20:51      1.29    1.18    0.85
  C2                   CONDUIT     0.028     0  22:10      1.00    0.03    0.16
  C9                   CONDUIT     0.127     0  21:20      1.16    0.43    0.73
  C16                  CONDUIT     0.486     0  21:01      1.86    0.05    0.23
  C3                   CONDUIT     0.092     0  20:51      1.72    0.04    0.12
  C19                  CONDUIT     0.033     0  22:00      0.70    0.01    0.53
  C11                  CONDUIT     0.130     0  20:57      1.48    0.01    0.30
  C20                  CONDUIT     7.396     0  20:51      8.78    0.23    0.40
  C22                  CONDUIT     0.202     0  21:19      1.54    0.09    0.60
  C12                  CONDUIT     0.075     0  22:44      1.12    0.01    0.28
  C17                  CONDUIT     4.403     0  20:47      5.86    0.22    0.31
  C10                  CONDUIT     3.437     0  20:58      2.41    0.35    0.76
  C13                  CONDUIT     3.583     0  20:48      1.64    0.21    0.75
  C18                  CONDUIT     2.370     0  20:46      1.21    0.09    0.60
  C23                  CONDUIT     4.497     0  20:53      3.15    0.50    0.86
  C4                   CONDUIT     3.080     0  20:51      4.36    0.75    1.00
  C7                   CONDUIT     0.401     0  20:51      0.82    0.10    0.61
  C14                  CONDUIT     0.271     0  20:57      2.08    0.02    0.09
  C5                   CONDUIT     0.085     0  20:48      1.74    1.46    1.00
  C8                   CONDUIT     0.127     0  21:20      2.10    1.60    0.86
  C15                  CONDUIT     0.487     0  21:09      4.17    1.55    0.83
  C21                  CONDUIT     0.202     0  21:19      2.06    1.16    0.69
  V4                   ORIFICE     0.028     0  21:23                      0.35
  V5                   ORIFICE     0.039     0  20:54                      1.00
  V1                   ORIFICE     0.271     0  20:55                      1.00
  V6                   ORIFICE     0.075     0  21:00                      0.43
  V3                   ORIFICE     0.093     0  20:50                      0.65
  V2                   ORIFICE     0.033     0  21:03                      0.24
  
  
  ***************************
  Flow Classification Summary
  ***************************
  
  -------------------------------------------------------------------------------------
                      Adjusted    ---------- Fraction of Time in Flow Class ---------- 
                       /Actual         Up    Down  Sub   Sup   Up    Down  Norm  Inlet 
  Conduit               Length    Dry  Dry   Dry   Crit  Crit  Crit  Crit  Ltd   Ctrl  
  -------------------------------------------------------------------------------------
  C1                      1.00   0.00  0.00  0.00  0.01  0.99  0.00  0.00  0.96  0.00
  C6                      1.00   0.00  0.00  0.00  0.03  0.97  0.00  0.00  0.00  0.00
  C2                      1.00   0.00  0.00  0.00  0.72  0.28  0.00  0.00  0.98  0.00
  C9                      1.00   0.00  0.00  0.00  1.00  0.00  0.00  0.00  1.00  0.00
  C16                     1.00   0.00  0.05  0.00  0.71  0.24  0.00  0.00  0.59  0.00
  C3                      1.00   0.00  0.00  0.00  0.04  0.96  0.00  0.00  0.39  0.00
  C19                     1.00   0.00  0.00  0.00  1.00  0.00  0.00  0.00  1.00  0.00
  C11                     1.00   0.00  0.00  0.00  0.11  0.89  0.00  0.00  1.00  0.00
  C20                     1.00   0.00  0.00  0.00  0.79  0.21  0.00  0.00  0.99  0.00
  C22                     1.00   0.00  0.00  0.00  0.97  0.03  0.00  0.00  1.00  0.00
  C12                     1.00   0.00  0.00  0.00  0.68  0.31  0.00  0.00  0.92  0.00
  C17                     1.00   0.00  0.00  0.00  0.49  0.51  0.00  0.00  0.98  0.00
  C10                     1.00   0.00  0.00  0.00  0.97  0.03  0.00  0.00  0.97  0.00
  C13                     1.00   0.00  0.00  0.00  0.80  0.20  0.00  0.00  0.79  0.00
  C18                     1.00   0.00  0.00  0.00  0.96  0.04  0.00  0.00  0.98  0.00
  C23                     1.00   0.00  0.00  0.00  0.80  0.20  0.00  0.00  0.94  0.00
  C4                      1.00   0.00  0.00  0.00  0.86  0.14  0.00  0.00  0.97  0.00
  C7                      1.00   0.00  0.00  0.00  0.95  0.05  0.00  0.00  0.97  0.00
  C14                     1.00   0.00  0.00  0.00  0.00  1.00  0.00  0.00  0.53  0.00
  C5                      1.00   0.00  0.00  0.00  0.95  0.05  0.00  0.00  0.96  0.00
  C8                      1.00   0.00  0.00  0.00  0.12  0.88  0.00  0.00  0.00  0.00
  C15                     1.00   0.05  0.00  0.00  0.01  0.94  0.00  0.00  0.02  0.00
  C21                     1.00   0.00  0.00  0.00  0.00  1.00  0.00  0.00  0.00  0.00
  
  
  *************************
  Conduit Surcharge Summary
  *************************
  
  ----------------------------------------------------------------------------
                                                           Hours        Hours 
                         --------- Hours Full --------   Above Full   Capacity
  Conduit                Both Ends  Upstream  Dnstream   Normal Flow   Limited
  ----------------------------------------------------------------------------
  C6                          0.01      0.48      0.01      0.42         0.01
  C9                          0.01      0.01      0.16      0.01         0.01
  C19                         0.01      0.01      0.06      0.01         0.01
  C22                         0.01      0.01      0.16      0.01         0.01
  C10                         0.01      0.01     13.81      0.01         0.01
  C13                         0.01      0.01      2.89      0.01         0.01
  C18                         0.01      0.01      2.89      0.01         0.01
  C23                         0.01      0.01      6.29      0.01         0.01
  C4                          0.01      0.01     11.16      0.01         0.01
  C7                          0.01      0.01     12.47      0.01         0.01
  C5                          0.49      0.55      0.57      0.53         0.46
  C8                          0.01      0.72      0.01      0.73         0.01
  C15                         0.01      0.58      0.01      0.60         0.01
  C21                         0.01      0.60      0.01      0.59         0.01
  

  Analysis begun on:  Mon Sep 20 20:08:19 2021
  Analysis ended on:  Mon Sep 20 20:08:19 2021
  Total elapsed time: < 1 sec