
  EPA STORM WATER MANAGEMENT MODEL - VERSION 5.1 (Build 5.3.0.dev0)
  --------------------------------------------------------------

  WARNING 09: time series interval greater than recording interval for Rain Gage RG1
  WARNING 09: time series interval greater than recording interval for Rain Gage RG2
  WARNING 09: time series interval greater than recording interval for Rain Gage RG3
  WARNING 09: time series interval greater than recording interval for Rain Gage RG4
  
  *********************************************************
  NOTE: The summary statistics displayed in this report are
  based on results found at every computational time step,  
  not just on results from each reporting time step.
  *********************************************************
  
  ****************
  Analysis Options
  ****************
  Flow Units ............... CMS
  Process Models:
    Rainfall/Runoff ........ YES
    RDII ................... NO
    Snowmelt ............... NO
    Groundwater ............ NO
    Flow Routing ........... YES
    Ponding Allowed ........ YES
    Water Quality .......... NO
  Infiltration Method ...... HORTON
  Flow Routing Method ...... DYNWAVE
  Surcharge Method ......... EXTRAN
  Starting Date ............ 08/28/2015 00:00:00
  Ending Date .............. 08/28/2015 23:40:00
  Antecedent Dry Days ...... 0.0
  Report Time Step ......... 00:01:00
  Wet Time Step ............ 00:01:00
  Dry Time Step ............ 00:01:00
  Routing Time Step ........ 5.00 sec
  Variable Time Step ....... YES
  Maximum Trials ........... 8
  Number of Threads ........ 1
  Head Tolerance ........... 0.001500 m
  
  
  **************************        Volume         Depth
  Runoff Quantity Continuity     hectare-m            mm
  **************************     ---------       -------
  Total Precipitation ......         3.305        18.341
  Evaporation Loss .........         0.000         0.000
  Infiltration Loss ........         0.000         0.000
  Surface Runoff ...........         3.305        18.342
  Final Storage ............         0.025         0.138
  Continuity Error (%) .....        -0.757
  
  
  **************************        Volume        Volume
  Flow Routing Continuity        hectare-m      10^6 ltr
  **************************     ---------     ---------
  Dry Weather Inflow .......         0.758         7.576
  Wet Weather Inflow .......         3.305        33.052
  Groundwater Inflow .......         0.000         0.000
  RDII Inflow ..............         0.000         0.000
  External Inflow ..........         0.000         0.000
  External Outflow .........         0.830         8.303
  Flooding Loss ............         2.275        22.747
  Evaporation Loss .........         0.000         0.000
  Exfiltration Loss ........         0.000         0.000
  Initial Stored Volume ....         0.000         0.000
  Final Stored Volume ......         0.768         7.679
  Continuity Error (%) .....         4.673
  
  
  *************************
  Highest Continuity Errors
  *************************
  Node T2 (22.99%)
  Node T3 (15.07%)
  Node T4 (14.99%)
  Node T5 (8.74%)
  Node J12 (8.37%)
  
  
  ***************************
  Time-Step Critical Elements
  ***************************
  None
  
  
  ********************************
  Highest Flow Instability Indexes
  ********************************
  All links are stable.
  
  
  *************************
  Routing Time Step Summary
  *************************
  Minimum Time Step           :     4.74 sec
  Average Time Step           :     5.00 sec
  Maximum Time Step           :     5.00 sec
  Percent in Steady State     :     0.00
  Average Iterations per Step :     2.06
  Percent Not Converging      :     0.35
  
  
  ***************************
  Subcatchment Runoff Summary
  ***************************
  
  ------------------------------------------------------------------------------------------------------------------------------
                            Total      Total      Total      Total     Imperv       Perv      Total       Total     Peak  Runoff
                           Precip      Runon       Evap      Infil     Runoff     Runoff     Runoff      Runoff   Runoff   Coeff
  Subcatchment                 mm         mm         mm         mm         mm         mm         mm    10^6 ltr      CMS
  ------------------------------------------------------------------------------------------------------------------------------
  SC01                      13.28       0.00       0.00       0.00      13.32       0.00      13.32        4.39     7.08   1.003
  SC02                      11.30       0.00       0.00       0.00      11.29       0.00      11.29        2.57     3.71   0.999
  SC03                      23.36       0.00       0.00       0.00      23.68       0.00      23.68        4.26     9.28   1.014
  SC04                      11.30       0.00       0.00       0.00      11.13       0.00      11.13        0.77     0.63   0.985
  SC05                      13.28       0.00       0.00       0.00      13.30       0.00      13.30        2.07     3.16   1.001
  SC06                      26.37       0.00       0.00       0.00      26.20       0.00      26.20        8.53     7.60   0.993
  SC07                      11.30       0.00       0.00       0.00      11.13       0.00      11.13        0.53     0.43   0.985
  SC08                      23.36       0.00       0.00       0.00      23.40       0.00      23.40        6.55     9.23   1.002
  SC09                      26.37       0.00       0.00       0.00      26.39       0.00      26.39        1.82     2.20   1.001
  SC010                     13.28       0.00       0.00       0.00      13.25       0.00      13.25        1.56     2.03   0.998
  
  
  ******************
  Node Depth Summary
  ******************
  
  ---------------------------------------------------------------------------------
                                 Average  Maximum  Maximum  Time of Max    Reported
                                   Depth    Depth      HGL   Occurrence   Max Depth
  Node                 Type       Meters   Meters   Meters  days hr:min      Meters
  ---------------------------------------------------------------------------------
  J1                   JUNCTION     0.05     0.79    34.79     0  18:31        0.74
  J3                   JUNCTION     0.07     0.12    18.12     0  18:34        0.12
  CSO7                 JUNCTION     0.09     1.20    35.20     0  18:20        1.20
  J5                   JUNCTION     0.04     0.27    32.27     0  18:26        0.27
  CSO9                 JUNCTION     0.11     2.00    42.00     0  18:20        2.00
  J8                   JUNCTION     0.08     3.00    39.00     0  18:27        1.86
  CSO8                 JUNCTION     0.11     2.00    34.00     0  18:10        2.00
  J10                  JUNCTION     0.06     0.92    29.92     0  18:21        0.91
  J13                  JUNCTION     0.04     0.48    29.48     0  18:26        0.47
  J15                  JUNCTION     0.11     0.90    15.90     0  18:34        0.89
  J16                  JUNCTION     0.04     0.64    30.64     0  18:31        0.59
  CSO10                JUNCTION     0.07     1.00    31.00     0  18:25        1.00
  J12                  JUNCTION     0.27     1.09    27.09     0  18:36        1.09
  J4                   JUNCTION     0.09     0.83    33.83     0  18:26        0.75
  J6                   JUNCTION     0.04     0.07    25.07     0  19:33        0.07
  J2                   JUNCTION     0.05     0.08    25.08     0  19:24        0.08
  J19                  JUNCTION     0.10     0.17     8.17     0  18:34        0.17
  J9                   JUNCTION     0.06     0.11    29.11     0  20:27        0.11
  J14                  JUNCTION     0.07     0.15    20.15     0  18:30        0.15
  J17                  JUNCTION     0.04     0.08    20.08     0  19:39        0.08
  J7                   JUNCTION     0.05     0.24    39.24     0  18:32        0.24
  J11                  JUNCTION     0.05     0.30    31.30     0  18:49        0.30
  J18                  JUNCTION     0.03     0.16    29.16     0  18:52        0.16
  Out_to_WWTP          OUTFALL      0.09     0.17     6.17     0  19:54        0.17
  T5                   STORAGE      1.37     5.00    32.00     0  18:32        5.00
  T4                   STORAGE      1.66     5.00    32.00     0  18:44        5.00
  T6                   STORAGE      2.12     5.00    36.00     0  18:25        5.00
  T3                   STORAGE      1.32     5.00    27.00     0  18:38        5.00
  T2                   STORAGE      1.47     5.00    26.00     0  18:32        5.00
  T1                   STORAGE      1.15     5.00    15.00     0  18:33        5.00
  
  
  *******************
  Node Inflow Summary
  *******************
  
  -------------------------------------------------------------------------------------------------
                                  Maximum  Maximum                  Lateral       Total        Flow
                                  Lateral    Total  Time of Max      Inflow      Inflow     Balance
                                   Inflow   Inflow   Occurrence      Volume      Volume       Error
  Node                 Type           CMS      CMS  days hr:min    10^6 ltr    10^6 ltr     Percent
  -------------------------------------------------------------------------------------------------
  J1                   JUNCTION     3.172    3.172     0  18:31        3.17        3.17      -0.022
  J3                   JUNCTION     0.000    0.159     0  18:31           0        4.99       0.540
  CSO7                 JUNCTION     0.442    0.442     0  18:26        1.09        1.09       0.018
  J5                   JUNCTION     0.632    0.706     0  18:26        1.02        1.87       0.039
  CSO9                 JUNCTION     2.205    2.205     0  18:26         2.2         2.2      -0.012
  J8                   JUNCTION     7.619    7.744     0  18:31        10.4        11.2      -0.068
  CSO8                 JUNCTION     9.234    9.234     0  18:21           7           7      -0.011
  J10                  JUNCTION     9.288    9.768     0  18:21        5.01        7.35      -0.245
  J13                  JUNCTION     3.724    3.724     0  18:26        3.48        3.48      -0.079
  J15                  JUNCTION     0.000    7.300     0  18:31           0        12.3       0.623
  J16                  JUNCTION     7.090    7.090     0  18:31        5.47        5.47      -0.224
  CSO10                JUNCTION     2.032    2.032     0  18:31        1.83        1.83      -0.101
  J12                  JUNCTION     0.000    7.942     0  18:22           0        9.77       9.133
  J4                   JUNCTION     0.000    0.085     0  18:23           0        0.85       0.063
  J6                   JUNCTION     0.000    0.028     0  18:44           0       0.855       0.458
  J2                   JUNCTION     0.000    0.039     0  18:32           0        1.42       0.351
  J19                  JUNCTION     0.000    0.271     0  18:33           0        8.31       0.118
  J9                   JUNCTION     0.000    0.075     0  18:30           0        2.28       0.790
  J14                  JUNCTION     0.000    0.120     0  18:30           0        2.73       0.159
  J17                  JUNCTION     0.000    0.033     0  18:32           0       0.903       0.751
  J7                   JUNCTION     0.000    0.128     0  18:32           0       0.871       0.115
  J11                  JUNCTION     0.000    0.487     0  18:49           0        2.34       0.351
  J18                  JUNCTION     0.000    0.202     0  18:52           0       0.911       0.045
  Out_to_WWTP          OUTFALL      0.000    0.271     0  18:35           0         8.3       0.000
  T5                   STORAGE      0.000    2.912     0  18:31           0        3.17       9.577
  T4                   STORAGE      0.000    0.652     0  18:27           0        1.87      17.640
  T6                   STORAGE      0.000    6.995     0  18:31           0        11.2       5.618
  T3                   STORAGE      0.000    6.152     0  18:23           0        8.95      17.745
  T2                   STORAGE      0.000    3.460     0  18:26           0        3.48      29.847
  T1                   STORAGE      0.000    4.295     0  18:32           0        12.2       3.354
  
  
  **********************
  Node Surcharge Summary
  **********************
  
  Surcharging occurs when water rises above the top of the highest conduit.
  ---------------------------------------------------------------------
                                               Max. Height   Min. Depth
                                   Hours       Above Crown    Below Rim
  Node                 Type      Surcharged         Meters       Meters
  ---------------------------------------------------------------------
  CSO7                 JUNCTION        0.72          0.945        0.000
  CSO9                 JUNCTION        0.79          1.682        0.000
  J8                   JUNCTION        0.06          1.500        0.000
  CSO8                 JUNCTION        0.79          1.547        0.000
  CSO10                JUNCTION        0.51          0.560        0.000
  J4                   JUNCTION        0.67          0.531        1.169
  
  
  *********************
  Node Flooding Summary
  *********************
  
  Flooding refers to all water that overflows a node, whether it ponds or not.
  --------------------------------------------------------------------------
                                                             Total   Maximum
                                 Maximum   Time of Max       Flood    Ponded
                        Hours       Rate    Occurrence      Volume     Depth
  Node                 Flooded       CMS   days hr:min    10^6 ltr    Meters
  --------------------------------------------------------------------------
  CSO7                    0.61     0.365      0  18:26       0.243     0.000
  CSO9                    0.63     2.078      0  18:26       1.332     0.000
  J8                      0.01     2.020      0  18:31       0.045     0.000
  CSO8                    0.65     8.744      0  18:21       4.659     0.000
  CSO10                   0.46     1.829      0  18:31       0.917     0.000
  T5                      1.25     2.382      0  18:32       1.143     0.000
  T4                      1.50     0.230      0  18:44       0.345     0.000
  T6                      2.31     6.906      0  18:31       7.888     0.000
  T3                      3.87     2.015      0  18:38       2.136     0.000
  T2                      1.46     1.516      0  18:32       0.925     0.000
  T1                      1.20     3.706      0  18:33       3.112     0.000
  
  
  **********************
  Storage Volume Summary
  **********************
  
  --------------------------------------------------------------------------------------------------
                         Average     Avg  Evap Exfil       Maximum     Max    Time of Max    Maximum
                          Volume    Pcnt  Pcnt  Pcnt        Volume    Pcnt     Occurrence    Outflow
  Storage Unit           1000 m3    Full  Loss  Loss       1000 m3    Full    days hr:min        CMS
  --------------------------------------------------------------------------------------------------
  T5                       0.137      27     0     0         0.500     100       0  18:32      0.039
  T4                       0.166      33     0     0         0.500     100       0  18:44      0.028
  T6                       0.254      42     0     0         0.600     100       0  18:25      0.075
  T3                       0.684      26     0     0         2.600     100       0  18:38      1.170
  T2                       0.294      29     0     0         1.000     100       0  18:32      0.033
  T1                       0.161      23     0     0         0.700     100       0  18:33      0.271
  
  
  ***********************
  Outfall Loading Summary
  ***********************
  
  -----------------------------------------------------------
                         Flow       Avg       Max       Total
                         Freq      Flow      Flow      Volume
  Outfall Node           Pcnt       CMS       CMS    10^6 ltr
  -----------------------------------------------------------
  Out_to_WWTP           99.43     0.098     0.271       8.303
  -----------------------------------------------------------
  System                99.43     0.098     0.271       8.303
  
  
  ********************
  Link Flow Summary
  ********************
  
  -----------------------------------------------------------------------------
                                 Maximum  Time of Max   Maximum    Max/    Max/
                                  |Flow|   Occurrence   |Veloc|    Full    Full
  Link                 Type          CMS  days hr:min     m/sec    Flow   Depth
  -----------------------------------------------------------------------------
  C1                   CONDUIT     0.039     0  19:24      1.02    0.01    0.10
  C6                   CONDUIT     0.076     0  18:26      1.29    1.21    0.95
  C2                   CONDUIT     0.028     0  19:33      1.00    0.03    0.16
  C9                   CONDUIT     0.132     0  18:32      1.12    0.45    0.74
  C16                  CONDUIT     0.486     0  18:40      1.86    0.05    0.30
  C3                   CONDUIT     0.119     0  18:30      1.88    0.05    0.13
  C19                  CONDUIT     0.033     0  19:39      0.71    0.01    0.48
  C11                  CONDUIT     0.153     0  18:34      1.48    0.01    0.26
  C20                  CONDUIT     6.928     0  18:31      8.48    0.22    0.34
  C22                  CONDUIT     0.202     0  18:52      1.53    0.09    0.60
  C12                  CONDUIT     0.075     0  20:27      0.70    0.01    0.30
  C17                  CONDUIT     7.917     0  18:22      6.48    0.39    0.41
  C10                  CONDUIT     6.995     0  18:31      3.96    0.72    1.00
  C13                  CONDUIT     6.152     0  18:23      2.93    0.36    0.77
  C18                  CONDUIT     3.460     0  18:26      1.69    0.13    0.62
  C23                  CONDUIT     4.295     0  18:32      2.93    0.47    0.80
  C4                   CONDUIT     2.912     0  18:31      3.98    0.71    0.89
  C7                   CONDUIT     0.652     0  18:27      1.24    0.16    0.64
  C14                  CONDUIT     0.271     0  18:35      2.08    0.02    0.09
  C5                   CONDUIT     0.085     0  18:23      1.76    1.46    1.00
  C8                   CONDUIT     0.128     0  18:32      1.94    1.61    0.87
  C15                  CONDUIT     0.487     0  18:49      4.15    1.55    0.83
  C21                  CONDUIT     0.202     0  18:52      1.92    1.16    0.69
  V4                   ORIFICE     0.028     0  18:44                      0.35
  V5                   ORIFICE     0.039     0  18:32                      1.00
  V1                   ORIFICE     0.271     0  18:33                      1.00
  V6                   ORIFICE     0.075     0  18:30                      0.43
  V3                   ORIFICE     0.120     0  18:30                      0.65
  V2                   ORIFICE     0.033     0  18:32                      0.24
  
  
  ***************************
  Flow Classification Summary
  ***************************
  
  -------------------------------------------------------------------------------------
                      Adjusted    ---------- Fraction of Time in Flow Class ---------- 
                       /Actual         Up    Down  Sub   Sup   Up    Down  Norm  Inlet 
  Conduit               Length    Dry  Dry   Dry   Crit  Crit  Crit  Crit  Ltd   Ctrl  
  -------------------------------------------------------------------------------------
  C1                      1.00   0.00  0.00  0.00  0.04  0.96  0.00  0.00  0.96  0.00
  C6                      1.00   0.00  0.00  0.00  0.04  0.96  0.00  0.00  0.00  0.00
  C2                      1.00   0.00  0.00  0.00  0.73  0.27  0.00  0.00  0.98  0.00
  C9                      1.00   0.00  0.00  0.00  1.00  0.00  0.00  0.00  1.00  0.00
  C16                     1.00   0.00  0.25  0.00  0.66  0.08  0.00  0.00  0.54  0.00
  C3                      1.00   0.00  0.00  0.00  0.04  0.96  0.00  0.00  0.43  0.00
  C19                     1.00   0.00  0.00  0.00  1.00  0.00  0.00  0.00  1.00  0.00
  C11                     1.00   0.00  0.00  0.00  0.08  0.92  0.00  0.00  1.00  0.00
  C20                     1.00   0.00  0.00  0.00  0.87  0.13  0.00  0.00  0.99  0.00
  C22                     1.00   0.00  0.00  0.00  0.98  0.02  0.00  0.00  1.00  0.00
  C12                     1.00   0.00  0.00  0.00  0.86  0.14  0.00  0.00  0.99  0.00
  C17                     1.00   0.00  0.00  0.00  0.37  0.63  0.00  0.00  0.98  0.00
  C10                     1.00   0.00  0.00  0.00  0.97  0.03  0.00  0.00  0.97  0.00
  C13                     1.00   0.00  0.00  0.00  0.74  0.26  0.00  0.00  0.68  0.00
  C18                     1.00   0.00  0.00  0.00  0.96  0.04  0.00  0.00  0.98  0.00
  C23                     1.00   0.00  0.00  0.00  0.76  0.24  0.00  0.00  0.95  0.00
  C4                      1.00   0.00  0.00  0.00  0.82  0.18  0.00  0.00  0.97  0.00
  C7                      1.00   0.00  0.00  0.00  0.95  0.05  0.00  0.00  0.97  0.00
  C14                     1.00   0.00  0.00  0.00  0.00  1.00  0.00  0.00  0.56  0.00
  C5                      1.00   0.00  0.00  0.00  0.96  0.04  0.00  0.00  0.95  0.00
  C8                      1.00   0.00  0.00  0.00  0.25  0.75  0.00  0.00  0.00  0.00
  C15                     1.00   0.25  0.00  0.00  0.00  0.74  0.00  0.00  0.00  0.00
  C21                     1.00   0.00  0.00  0.00  0.00  1.00  0.00  0.00  0.00  0.00
  
  
  *************************
  Conduit Surcharge Summary
  *************************
  
  ----------------------------------------------------------------------------
                                                           Hours        Hours 
                         --------- Hours Full --------   Above Full   Capacity
  Conduit                Both Ends  Upstream  Dnstream   Normal Flow   Limited
  ----------------------------------------------------------------------------
  C6                          0.01      0.67      0.01      0.58         0.01
  C9                          0.01      0.01      0.33      0.01         0.01
  C22                         0.01      0.01      0.11      0.01         0.01
  C10                         0.06      0.06     13.06      0.01         0.01
  C13                         0.01      0.01      5.30      0.01         0.01
  C18                         0.01      0.01      5.28      0.01         0.01
  C23                         0.01      0.01      5.19      0.01         0.01
  C4                          0.01      0.01      7.39      0.01         0.01
  C7                          0.01      0.01     12.43      0.01         0.01
  C5                          0.66      0.72      0.77      0.71         0.64
  C8                          0.01      0.79      0.01      0.80         0.01
  C15                         0.01      0.79      0.01      0.81         0.01
  C21                         0.01      0.51      0.01      0.49         0.01
  

  Analysis begun on:  Mon Sep 20 20:22:30 2021
  Analysis ended on:  Mon Sep 20 20:22:31 2021
  Total elapsed time: 00:00:01