
  EPA STORM WATER MANAGEMENT MODEL - VERSION 5.1 (Build 5.3.0.dev0)
  --------------------------------------------------------------

  WARNING 09: time series interval greater than recording interval for Rain Gage RG1
  WARNING 09: time series interval greater than recording interval for Rain Gage RG2
  WARNING 09: time series interval greater than recording interval for Rain Gage RG3
  WARNING 09: time series interval greater than recording interval for Rain Gage RG4
  
  *********************************************************
  NOTE: The summary statistics displayed in this report are
  based on results found at every computational time step,  
  not just on results from each reporting time step.
  *********************************************************
  
  ****************
  Analysis Options
  ****************
  Flow Units ............... CMS
  Process Models:
    Rainfall/Runoff ........ YES
    RDII ................... NO
    Snowmelt ............... NO
    Groundwater ............ NO
    Flow Routing ........... YES
    Ponding Allowed ........ YES
    Water Quality .......... NO
  Infiltration Method ...... HORTON
  Flow Routing Method ...... DYNWAVE
  Surcharge Method ......... EXTRAN
  Starting Date ............ 08/28/2015 00:00:00
  Ending Date .............. 08/28/2015 23:40:00
  Antecedent Dry Days ...... 0.0
  Report Time Step ......... 00:01:00
  Wet Time Step ............ 00:01:00
  Dry Time Step ............ 00:01:00
  Routing Time Step ........ 5.00 sec
  Variable Time Step ....... YES
  Maximum Trials ........... 8
  Number of Threads ........ 1
  Head Tolerance ........... 0.001500 m
  
  
  **************************        Volume         Depth
  Runoff Quantity Continuity     hectare-m            mm
  **************************     ---------       -------
  Total Precipitation ......         3.552        19.714
  Evaporation Loss .........         0.000         0.000
  Infiltration Loss ........         0.000         0.000
  Surface Runoff ...........         3.548        19.691
  Final Storage ............         0.012         0.069
  Continuity Error (%) .....        -0.237
  
  
  **************************        Volume        Volume
  Flow Routing Continuity        hectare-m      10^6 ltr
  **************************     ---------     ---------
  Dry Weather Inflow .......         0.758         7.576
  Wet Weather Inflow .......         3.548        35.484
  Groundwater Inflow .......         0.000         0.000
  RDII Inflow ..............         0.000         0.000
  External Inflow ..........         0.000         0.000
  External Outflow .........         1.557        15.569
  Flooding Loss ............         2.096        20.956
  Evaporation Loss .........         0.000         0.000
  Exfiltration Loss ........         0.000         0.000
  Initial Stored Volume ....         0.000         0.000
  Final Stored Volume ......         0.554         5.536
  Continuity Error (%) .....         2.319
  
  
  *************************
  Highest Continuity Errors
  *************************
  Node T2 (10.55%)
  Node T3 (7.35%)
  Node T4 (5.77%)
  Node T5 (3.35%)
  Node T6 (2.16%)
  
  
  ***************************
  Time-Step Critical Elements
  ***************************
  None
  
  
  ********************************
  Highest Flow Instability Indexes
  ********************************
  All links are stable.
  
  
  *************************
  Routing Time Step Summary
  *************************
  Minimum Time Step           :     4.50 sec
  Average Time Step           :     5.00 sec
  Maximum Time Step           :     5.00 sec
  Percent in Steady State     :     0.00
  Average Iterations per Step :     2.27
  Percent Not Converging      :     0.79
  
  
  ***************************
  Subcatchment Runoff Summary
  ***************************
  
  ------------------------------------------------------------------------------------------------------------------------------
                            Total      Total      Total      Total     Imperv       Perv      Total       Total     Peak  Runoff
                           Precip      Runon       Evap      Infil     Runoff     Runoff     Runoff      Runoff   Runoff   Coeff
  Subcatchment                 mm         mm         mm         mm         mm         mm         mm    10^6 ltr      CMS
  ------------------------------------------------------------------------------------------------------------------------------
  SC01                      15.77       0.00       0.00       0.00      15.74       0.00      15.74        5.19     1.57   0.998
  SC02                      23.51       0.00       0.00       0.00      23.51       0.00      23.51        5.35     1.84   1.000
  SC03                      27.91       0.00       0.00       0.00      28.02       0.00      28.02        5.04     2.57   1.004
  SC04                      23.51       0.00       0.00       0.00      23.46       0.00      23.46        1.62     0.39   0.998
  SC05                      15.77       0.00       0.00       0.00      15.73       0.00      15.73        2.45     0.71   0.998
  SC06                      12.88       0.00       0.00       0.00      12.79       0.00      12.79        4.16     0.68   0.993
  SC07                      23.51       0.00       0.00       0.00      23.46       0.00      23.46        1.11     0.27   0.998
  SC08                      27.91       0.00       0.00       0.00      27.91       0.00      27.91        7.82     2.81   1.000
  SC09                      12.88       0.00       0.00       0.00      12.82       0.00      12.82        0.88     0.17   0.995
  SC010                     15.77       0.00       0.00       0.00      15.72       0.00      15.72        1.85     0.46   0.997
  
  
  ******************
  Node Depth Summary
  ******************
  
  ---------------------------------------------------------------------------------
                                 Average  Maximum  Maximum  Time of Max    Reported
                                   Depth    Depth      HGL   Occurrence   Max Depth
  Node                 Type       Meters   Meters   Meters  days hr:min      Meters
  ---------------------------------------------------------------------------------
  J1                   JUNCTION     0.06     0.27    34.27     0  06:31        0.27
  J3                   JUNCTION     0.10     0.13    18.13     0  18:49        0.13
  CSO7                 JUNCTION     0.17     1.20    35.20     0  03:00        1.20
  J5                   JUNCTION     0.05     0.22    32.22     0  06:32        0.22
  CSO9                 JUNCTION     0.13     2.00    42.00     0  03:21        2.00
  J8                   JUNCTION     0.08     0.29    36.29     0  03:42        0.29
  CSO8                 JUNCTION     0.23     2.00    34.00     0  03:05        2.00
  J10                  JUNCTION     0.08     0.47    29.47     0  06:26        0.47
  J13                  JUNCTION     0.05     0.34    29.34     0  06:31        0.34
  J15                  JUNCTION     0.15     0.42    15.42     0  06:38        0.42
  J16                  JUNCTION     0.05     0.29    30.29     0  06:31        0.29
  CSO10                JUNCTION     0.11     1.00    31.00     0  03:26        1.00
  J12                  JUNCTION     0.76     1.14    27.14     0  06:23        1.14
  J4                   JUNCTION     0.14     1.43    34.43     0  03:03        0.75
  J6                   JUNCTION     0.06     0.07    25.07     0  05:19        0.07
  J2                   JUNCTION     0.06     0.08    25.08     0  06:56        0.08
  J19                  JUNCTION     0.14     0.17     8.17     0  03:50        0.17
  J9                   JUNCTION     0.09     0.11    29.11     0  05:51        0.11
  J14                  JUNCTION     0.11     0.15    20.15     0  18:41        0.15
  J17                  JUNCTION     0.06     0.08    20.08     0  05:14        0.08
  J7                   JUNCTION     0.06     0.23    39.23     0  03:48        0.23
  J11                  JUNCTION     0.08     0.30    31.30     0  06:49        0.30
  J18                  JUNCTION     0.04     0.16    29.16     0  06:48        0.16
  Out_to_WWTP          OUTFALL      0.13     0.17     6.17     0  07:46        0.17
  T5                   STORAGE      2.92     5.00    32.00     0  04:40        5.00
  T4                   STORAGE      3.38     5.00    32.00     0  04:32        5.00
  T6                   STORAGE      3.01     5.00    36.00     0  03:51        5.00
  T3                   STORAGE      4.17     5.00    27.00     0  04:40        5.00
  T2                   STORAGE      3.67     5.00    26.00     0  04:19        5.00
  T1                   STORAGE      2.68     5.00    15.00     0  03:48        5.00
  
  
  *******************
  Node Inflow Summary
  *******************
  
  -------------------------------------------------------------------------------------------------
                                  Maximum  Maximum                  Lateral       Total        Flow
                                  Lateral    Total  Time of Max      Inflow      Inflow     Balance
                                   Inflow   Inflow   Occurrence      Volume      Volume       Error
  Node                 Type           CMS      CMS  days hr:min    10^6 ltr    10^6 ltr     Percent
  -------------------------------------------------------------------------------------------------
  J1                   JUNCTION     0.719    0.719     0  06:31        3.55        3.55      -0.063
  J3                   JUNCTION     0.000    0.163     0  18:41           0        9.67       0.324
  CSO7                 JUNCTION     0.276    0.276     0  06:31        1.68        1.68       0.018
  J5                   JUNCTION     0.394    0.468     0  06:31        1.87        3.27      -0.051
  CSO9                 JUNCTION     0.174    0.174     0  03:36        1.27        1.27      -0.012
  J8                   JUNCTION     0.683    0.810     0  03:41           6        7.24      -0.038
  CSO8                 JUNCTION     2.819    2.819     0  06:26        8.26        8.26      -0.022
  J10                  JUNCTION     2.579    3.065     0  06:26        5.79        11.9      -0.097
  J13                  JUNCTION     1.852    1.852     0  06:31        6.26        6.26      -0.178
  J15                  JUNCTION     0.000    1.787     0  06:31           0        19.8       0.338
  J16                  JUNCTION     1.585    1.585     0  06:31        6.27        6.27      -0.075
  CSO10                JUNCTION     0.467    0.467     0  06:31        2.12        2.12      -0.043
  J12                  JUNCTION     0.000    2.550     0  06:27           0        16.4       0.750
  J4                   JUNCTION     0.000    0.085     0  03:01           0        1.41      -0.014
  J6                   JUNCTION     0.000    0.028     0  04:32           0        1.63       0.137
  J2                   JUNCTION     0.000    0.039     0  04:40           0        2.37       0.141
  J19                  JUNCTION     0.000    0.271     0  03:48           0        15.6       0.058
  J9                   JUNCTION     0.000    0.075     0  04:00           0        4.48       0.214
  J14                  JUNCTION     0.000    0.123     0  18:40           0        5.69       0.123
  J17                  JUNCTION     0.000    0.033     0  04:19           0        1.94       0.200
  J7                   JUNCTION     0.000    0.127     0  03:48           0        1.24       0.067
  J11                  JUNCTION     0.000    0.487     0  06:49           0        6.06       0.054
  J18                  JUNCTION     0.000    0.202     0  06:48           0        1.95      -0.030
  Out_to_WWTP          OUTFALL      0.000    0.271     0  03:50           0        15.6       0.000
  T5                   STORAGE      0.000    0.653     0  06:31           0        3.55       3.462
  T4                   STORAGE      0.000    0.436     0  06:32           0        3.28       6.122
  T6                   STORAGE      0.000    0.769     0  03:42           0        7.24       2.206
  T3                   STORAGE      0.000    2.566     0  06:26           0        16.2       7.929
  T2                   STORAGE      0.000    1.705     0  06:31           0        6.27      11.796
  T1                   STORAGE      0.000    1.539     0  06:38           0        19.7       1.836
  
  
  **********************
  Node Surcharge Summary
  **********************
  
  Surcharging occurs when water rises above the top of the highest conduit.
  ---------------------------------------------------------------------
                                               Max. Height   Min. Depth
                                   Hours       Above Crown    Below Rim
  Node                 Type      Surcharged         Meters       Meters
  ---------------------------------------------------------------------
  CSO7                 JUNCTION        2.19          0.945        0.000
  CSO9                 JUNCTION        1.02          1.682        0.000
  CSO8                 JUNCTION        2.36          1.547        0.000
  CSO10                JUNCTION        0.98          0.560        0.000
  J4                   JUNCTION        2.07          1.134        0.566
  
  
  *********************
  Node Flooding Summary
  *********************
  
  Flooding refers to all water that overflows a node, whether it ponds or not.
  --------------------------------------------------------------------------
                                                             Total   Maximum
                                 Maximum   Time of Max       Flood    Ponded
                        Hours       Rate    Occurrence      Volume     Depth
  Node                 Flooded       CMS   days hr:min    10^6 ltr    Meters
  --------------------------------------------------------------------------
  CSO7                    1.79     0.202      0  06:31       0.271     0.000
  CSO9                    0.39     0.047      0  03:36       0.024     0.000
  CSO8                    1.48     2.332      0  06:26       2.204     0.000
  CSO10                   0.68     0.265      0  06:31       0.166     0.000
  T5                      2.09     0.614      0  06:31       0.952     0.000
  T4                      3.55     0.408      0  06:32       1.209     0.000
  T6                      4.52     0.647      0  03:51       2.499     0.000
  T3                     13.07     2.506      0  06:26       7.114     0.000
  T2                      3.19     1.672      0  06:31       2.996     0.000
  T1                      2.82     1.268      0  06:38       3.521     0.000
  
  
  **********************
  Storage Volume Summary
  **********************
  
  --------------------------------------------------------------------------------------------------
                         Average     Avg  Evap Exfil       Maximum     Max    Time of Max    Maximum
                          Volume    Pcnt  Pcnt  Pcnt        Volume    Pcnt     Occurrence    Outflow
  Storage Unit           1000 m3    Full  Loss  Loss       1000 m3    Full    days hr:min        CMS
  --------------------------------------------------------------------------------------------------
  T5                       0.292      58     0     0         0.500     100       0  04:40      0.039
  T4                       0.338      68     0     0         0.500     100       0  04:32      0.028
  T6                       0.361      60     0     0         0.600     100       0  03:51      0.075
  T3                       2.170      83     0     0         2.600     100       0  04:40      0.194
  T2                       0.735      73     0     0         1.000     100       0  04:19      0.033
  T1                       0.375      54     0     0         0.700     100       0  03:48      0.271
  
  
  ***********************
  Outfall Loading Summary
  ***********************
  
  -----------------------------------------------------------
                         Flow       Avg       Max       Total
                         Freq      Flow      Flow      Volume
  Outfall Node           Pcnt       CMS       CMS    10^6 ltr
  -----------------------------------------------------------
  Out_to_WWTP           99.43     0.184     0.271      15.569
  -----------------------------------------------------------
  System                99.43     0.184     0.271      15.569
  
  
  ********************
  Link Flow Summary
  ********************
  
  -----------------------------------------------------------------------------
                                 Maximum  Time of Max   Maximum    Max/    Max/
                                  |Flow|   Occurrence   |Veloc|    Full    Full
  Link                 Type          CMS  days hr:min     m/sec    Flow   Depth
  -----------------------------------------------------------------------------
  C1                   CONDUIT     0.039     0  06:55      1.02    0.01    0.10
  C6                   CONDUIT     0.075     0  06:31      1.29    1.19    0.87
  C2                   CONDUIT     0.028     0  05:19      1.01    0.03    0.16
  C9                   CONDUIT     0.127     0  03:48      1.30    0.43    0.52
  C16                  CONDUIT     0.488     0  06:20      1.84    0.05    0.19
  C3                   CONDUIT     0.124     0  18:42      1.87    0.05    0.14
  C19                  CONDUIT     0.033     0  05:14      0.68    0.01    0.25
  C11                  CONDUIT     0.161     0  18:49      1.71    0.01    0.13
  C20                  CONDUIT     1.426     0  06:31      4.28    0.04    0.17
  C22                  CONDUIT     0.202     0  06:48      1.56    0.09    0.36
  C12                  CONDUIT     0.075     0  05:51      0.48    0.01    0.31
  C17                  CONDUIT     2.474     0  06:27      3.50    0.12    0.39
  C10                  CONDUIT     0.769     0  03:42      0.94    0.08    0.60
  C13                  CONDUIT     2.566     0  06:26      2.55    0.15    0.79
  C18                  CONDUIT     1.705     0  06:31      1.75    0.06    0.59
  C23                  CONDUIT     1.539     0  06:38      1.62    0.17    0.64
  C4                   CONDUIT     0.653     0  06:31      1.70    0.16    0.63
  C7                   CONDUIT     0.436     0  06:32      1.19    0.11    0.61
  C14                  CONDUIT     0.271     0  03:50      2.08    0.02    0.09
  C5                   CONDUIT     0.085     0  03:01      1.75    1.45    1.00
  C8                   CONDUIT     0.127     0  03:48      1.91    1.60    0.86
  C15                  CONDUIT     0.487     0  06:49      3.93    1.55    0.83
  C21                  CONDUIT     0.202     0  06:48      1.87    1.16    0.69
  V4                   ORIFICE     0.028     0  04:32                      0.35
  V5                   ORIFICE     0.039     0  04:40                      1.00
  V1                   ORIFICE     0.271     0  03:48                      1.00
  V6                   ORIFICE     0.075     0  04:00                      0.43
  V3                   ORIFICE     0.123     0  18:40                      0.65
  V2                   ORIFICE     0.033     0  04:19                      0.24
  
  
  ***************************
  Flow Classification Summary
  ***************************
  
  -------------------------------------------------------------------------------------
                      Adjusted    ---------- Fraction of Time in Flow Class ---------- 
                       /Actual         Up    Down  Sub   Sup   Up    Down  Norm  Inlet 
  Conduit               Length    Dry  Dry   Dry   Crit  Crit  Crit  Crit  Ltd   Ctrl  
  -------------------------------------------------------------------------------------
  C1                      1.00   0.00  0.00  0.00  0.27  0.73  0.00  0.00  0.96  0.00
  C6                      1.00   0.00  0.00  0.00  0.11  0.89  0.00  0.00  0.00  0.00
  C2                      1.00   0.00  0.00  0.00  0.33  0.66  0.00  0.00  0.98  0.00
  C9                      1.00   0.00  0.00  0.00  1.00  0.00  0.00  0.00  1.00  0.00
  C16                     1.00   0.00  0.09  0.00  0.63  0.28  0.00  0.00  0.54  0.00
  C3                      1.00   0.00  0.00  0.00  0.04  0.96  0.00  0.00  0.71  0.00
  C19                     1.00   0.00  0.00  0.00  1.00  0.00  0.00  0.00  1.00  0.00
  C11                     1.00   0.00  0.00  0.00  0.18  0.81  0.00  0.00  1.00  0.00
  C20                     1.00   0.00  0.00  0.00  0.79  0.21  0.00  0.00  0.99  0.00
  C22                     1.00   0.00  0.00  0.00  0.90  0.10  0.00  0.00  1.00  0.00
  C12                     1.00   0.00  0.00  0.00  0.99  0.00  0.00  0.00  1.00  0.00
  C17                     1.00   0.00  0.00  0.00  0.90  0.10  0.00  0.00  0.97  0.00
  C10                     1.00   0.00  0.00  0.00  0.95  0.05  0.00  0.00  0.98  0.00
  C13                     1.00   0.00  0.00  0.00  0.89  0.11  0.00  0.00  0.08  0.00
  C18                     1.00   0.00  0.00  0.00  0.93  0.07  0.00  0.00  0.98  0.00
  C23                     1.00   0.00  0.00  0.00  0.89  0.11  0.00  0.00  0.95  0.00
  C4                      1.00   0.00  0.00  0.00  0.89  0.11  0.00  0.00  0.97  0.00
  C7                      1.00   0.00  0.00  0.00  0.95  0.05  0.00  0.00  0.97  0.00
  C14                     1.00   0.00  0.00  0.00  0.00  1.00  0.00  0.00  0.64  0.00
  C5                      1.00   0.00  0.00  0.00  0.96  0.04  0.00  0.00  0.88  0.00
  C8                      1.00   0.00  0.00  0.00  0.20  0.80  0.00  0.00  0.01  0.00
  C15                     1.00   0.09  0.00  0.00  0.02  0.89  0.00  0.00  0.03  0.00
  C21                     1.00   0.00  0.00  0.00  0.00  1.00  0.00  0.00  0.00  0.00
  
  
  *************************
  Conduit Surcharge Summary
  *************************
  
  ----------------------------------------------------------------------------
                                                           Hours        Hours 
                         --------- Hours Full --------   Above Full   Capacity
  Conduit                Both Ends  Upstream  Dnstream   Normal Flow   Limited
  ----------------------------------------------------------------------------
  C6                          0.01      2.07      0.01      1.88         0.01
  C10                         0.01      0.01     18.26      0.01         0.01
  C13                         0.01      0.01     20.19      0.01         0.01
  C18                         0.01      0.01     20.35      0.01         0.01
  C23                         0.01      0.01     20.28      0.01         0.01
  C4                          0.01      0.01     20.30      0.01         0.01
  C7                          0.01      0.01     20.46      0.01         0.01
  C5                          2.05      2.19      2.29      2.30         1.99
  C8                          0.01      1.02      0.01      1.04         0.01
  C15                         0.01      2.36      0.01      2.46         0.01
  C21                         0.01      0.98      0.01      0.93         0.01
  

  Analysis begun on:  Mon Sep 20 20:38:19 2021
  Analysis ended on:  Mon Sep 20 20:38:19 2021
  Total elapsed time: < 1 sec