
  EPA STORM WATER MANAGEMENT MODEL - VERSION 5.1 (Build 5.3.0.dev0)
  --------------------------------------------------------------

  WARNING 09: time series interval greater than recording interval for Rain Gage RG1
  WARNING 09: time series interval greater than recording interval for Rain Gage RG2
  WARNING 09: time series interval greater than recording interval for Rain Gage RG3
  WARNING 09: time series interval greater than recording interval for Rain Gage RG4
  
  *********************************************************
  NOTE: The summary statistics displayed in this report are
  based on results found at every computational time step,  
  not just on results from each reporting time step.
  *********************************************************
  
  ****************
  Analysis Options
  ****************
  Flow Units ............... CMS
  Process Models:
    Rainfall/Runoff ........ YES
    RDII ................... NO
    Snowmelt ............... NO
    Groundwater ............ NO
    Flow Routing ........... YES
    Ponding Allowed ........ YES
    Water Quality .......... NO
  Infiltration Method ...... HORTON
  Flow Routing Method ...... DYNWAVE
  Surcharge Method ......... EXTRAN
  Starting Date ............ 08/28/2015 00:00:00
  Ending Date .............. 08/28/2015 23:40:00
  Antecedent Dry Days ...... 0.0
  Report Time Step ......... 00:01:00
  Wet Time Step ............ 00:01:00
  Dry Time Step ............ 00:01:00
  Routing Time Step ........ 5.00 sec
  Variable Time Step ....... YES
  Maximum Trials ........... 8
  Number of Threads ........ 1
  Head Tolerance ........... 0.001500 m
  
  
  **************************        Volume         Depth
  Runoff Quantity Continuity     hectare-m            mm
  **************************     ---------       -------
  Total Precipitation ......         2.294        12.732
  Evaporation Loss .........         0.000         0.000
  Infiltration Loss ........         0.000         0.000
  Surface Runoff ...........         2.278        12.640
  Final Storage ............         0.022         0.122
  Continuity Error (%) .....        -0.239
  
  
  **************************        Volume        Volume
  Flow Routing Continuity        hectare-m      10^6 ltr
  **************************     ---------     ---------
  Dry Weather Inflow .......         0.758         7.576
  Wet Weather Inflow .......         2.278        22.777
  Groundwater Inflow .......         0.000         0.000
  RDII Inflow ..............         0.000         0.000
  External Inflow ..........         0.000         0.000
  External Outflow .........         1.420        14.197
  Flooding Loss ............         1.026        10.263
  Evaporation Loss .........         0.000         0.000
  Exfiltration Loss ........         0.000         0.000
  Initial Stored Volume ....         0.000         0.000
  Final Stored Volume ......         0.466         4.657
  Continuity Error (%) .....         4.072
  
  
  *************************
  Highest Continuity Errors
  *************************
  Node T3 (8.97%)
  Node T5 (8.94%)
  Node T1 (3.10%)
  Node J12 (1.67%)
  
  
  ***************************
  Time-Step Critical Elements
  ***************************
  None
  
  
  ********************************
  Highest Flow Instability Indexes
  ********************************
  All links are stable.
  
  
  *************************
  Routing Time Step Summary
  *************************
  Minimum Time Step           :     4.50 sec
  Average Time Step           :     5.00 sec
  Maximum Time Step           :     5.00 sec
  Percent in Steady State     :     0.00
  Average Iterations per Step :     2.16
  Percent Not Converging      :     0.28
  
  
  ***************************
  Subcatchment Runoff Summary
  ***************************
  
  ------------------------------------------------------------------------------------------------------------------------------
                            Total      Total      Total      Total     Imperv       Perv      Total       Total     Peak  Runoff
                           Precip      Runon       Evap      Infil     Runoff     Runoff     Runoff      Runoff   Runoff   Coeff
  Subcatchment                 mm         mm         mm         mm         mm         mm         mm    10^6 ltr      CMS
  ------------------------------------------------------------------------------------------------------------------------------
  SC01                      14.48       0.00       0.00       0.00      14.45       0.00      14.45        4.77     2.90   0.998
  SC02                       8.85       0.00       0.00       0.00       8.79       0.00       8.79        2.00     0.57   0.993
  SC03                      14.56       0.00       0.00       0.00      14.56       0.00      14.56        2.62     0.76   1.000
  SC04                       8.85       0.00       0.00       0.00       8.72       0.00       8.72        0.60     0.14   0.986
  SC05                      14.48       0.00       0.00       0.00      14.44       0.00      14.44        2.25     1.27   0.997
  SC06                      11.31       0.00       0.00       0.00      11.07       0.00      11.07        3.60     0.59   0.979
  SC07                       8.85       0.00       0.00       0.00       8.72       0.00       8.72        0.41     0.09   0.986
  SC08                      14.56       0.00       0.00       0.00      14.47       0.00      14.47        4.05     0.94   0.994
  SC09                      11.31       0.00       0.00       0.00      11.17       0.00      11.17        0.77     0.16   0.988
  SC010                     14.48       0.00       0.00       0.00      14.41       0.00      14.41        1.69     0.79   0.995
  
  
  ******************
  Node Depth Summary
  ******************
  
  ---------------------------------------------------------------------------------
                                 Average  Maximum  Maximum  Time of Max    Reported
                                   Depth    Depth      HGL   Occurrence   Max Depth
  Node                 Type       Meters   Meters   Meters  days hr:min      Meters
  ---------------------------------------------------------------------------------
  J1                   JUNCTION     0.05     0.37    34.37     0  17:56        0.36
  J3                   JUNCTION     0.11     0.17    18.17     0  12:40        0.17
  CSO7                 JUNCTION     0.09     1.20    35.20     0  11:10        1.20
  J5                   JUNCTION     0.04     0.15    32.15     0  11:32        0.15
  CSO9                 JUNCTION     0.11     2.00    42.00     0  11:20        2.00
  J8                   JUNCTION     0.08     0.27    36.27     0  11:27        0.27
  CSO8                 JUNCTION     0.15     2.00    34.00     0  10:55        2.00
  J10                  JUNCTION     0.07     0.32    29.32     0  11:32        0.32
  J13                  JUNCTION     0.04     0.20    29.20     0  11:26        0.20
  J15                  JUNCTION     0.16     0.52    15.52     0  17:59        0.52
  J16                  JUNCTION     0.05     0.40    30.40     0  17:56        0.39
  CSO10                JUNCTION     0.10     1.00    31.00     0  11:16        1.00
  J12                  JUNCTION     0.40     1.04    27.04     0  18:16        1.04
  J4                   JUNCTION     0.10     1.54    34.54     0  11:12        0.77
  J6                   JUNCTION     0.06     0.11    25.11     0  12:21        0.11
  J2                   JUNCTION     0.06     0.08    25.08     0  12:57        0.08
  J19                  JUNCTION     0.12     0.17     8.17     0  11:26        0.17
  J9                   JUNCTION     0.10     0.16    29.16     0  12:23        0.16
  J14                  JUNCTION     0.13     0.19    20.19     0  19:58        0.19
  J17                  JUNCTION     0.07     0.13    20.13     0  12:03        0.13
  J7                   JUNCTION     0.06     0.23    39.23     0  11:28        0.23
  J11                  JUNCTION     0.06     0.30    31.30     0  11:41        0.30
  J18                  JUNCTION     0.04     0.16    29.16     0  18:09        0.16
  Out_to_WWTP          OUTFALL      0.12     0.17     6.17     0  21:49        0.17
  T5                   STORAGE      2.46     5.00    32.00     0  12:10        5.00
  T4                   STORAGE      0.64     3.04    30.04     0  12:19        3.04
  T6                   STORAGE      1.41     5.00    36.00     0  11:44        5.00
  T3                   STORAGE      2.53     5.00    27.00     0  18:13        5.00
  T2                   STORAGE      0.60     3.01    24.01     0  12:01        3.01
  T1                   STORAGE      2.77     5.00    15.00     0  11:24        5.00
  
  
  *******************
  Node Inflow Summary
  *******************
  
  -------------------------------------------------------------------------------------------------
                                  Maximum  Maximum                  Lateral       Total        Flow
                                  Lateral    Total  Time of Max      Inflow      Inflow     Balance
                                   Inflow   Inflow   Occurrence      Volume      Volume       Error
  Node                 Type           CMS      CMS  days hr:min    10^6 ltr    10^6 ltr     Percent
  -------------------------------------------------------------------------------------------------
  J1                   JUNCTION     1.287    1.287     0  17:56        3.35        3.35      -0.025
  J3                   JUNCTION     0.000    0.283     0  12:39           0        12.9       0.316
  CSO7                 JUNCTION     0.106    0.106     0  11:31       0.979       0.979       0.011
  J5                   JUNCTION     0.142    0.213     0  11:31        0.85         1.8      -0.021
  CSO9                 JUNCTION     0.167    0.167     0  11:21        1.15        1.15      -0.010
  J8                   JUNCTION     0.632    0.735     0  11:21        5.44        6.58      -0.026
  CSO8                 JUNCTION     0.953    0.953     0  11:31         4.5         4.5      -0.024
  J10                  JUNCTION     0.773    1.259     0  11:31        3.37        7.54      -0.138
  J13                  JUNCTION     0.589    0.589     0  11:26        2.91        2.91      -0.232
  J15                  JUNCTION     0.000    3.230     0  17:56           0        23.4       0.372
  J16                  JUNCTION     2.912    2.912     0  17:56        5.85        5.85      -0.099
  CSO10                JUNCTION     0.794    0.794     0  17:56        1.96        1.96      -0.081
  J12                  JUNCTION     0.000    1.268     0  11:32           0        13.9       1.697
  J4                   JUNCTION     0.000    0.081     0  11:11           0       0.952       0.064
  J6                   JUNCTION     0.000    0.062     0  12:19           0         1.8       0.014
  J2                   JUNCTION     0.000    0.039     0  12:10           0        1.95       0.251
  J19                  JUNCTION     0.000    0.271     0  11:24           0        14.2       0.084
  J9                   JUNCTION     0.000    0.175     0  11:44           0        6.25       0.128
  J14                  JUNCTION     0.000    0.190     0  18:14           0         9.2       0.107
  J17                  JUNCTION     0.000    0.108     0  12:01           0         2.9       0.021
  J7                   JUNCTION     0.000    0.127     0  11:28           0        1.14       0.101
  J11                  JUNCTION     0.000    0.486     0  11:40           0        4.17       0.092
  J18                  JUNCTION     0.000    0.202     0  18:09           0        1.75      -0.018
  Out_to_WWTP          OUTFALL      0.000    0.271     0  11:26           0        14.2       0.000
  T5                   STORAGE      0.000    1.173     0  17:56           0        3.35       9.818
  T4                   STORAGE      0.000    0.205     0  11:32           0         1.8       0.028
  T6                   STORAGE      0.000    0.698     0  11:27           0        6.58       0.552
  T3                   STORAGE      0.000    1.207     0  11:33           0        13.6       9.852
  T2                   STORAGE      0.000    0.536     0  11:27           0        2.92       0.240
  T1                   STORAGE      0.000    2.345     0  17:59           0        23.3       3.203
  
  
  **********************
  Node Surcharge Summary
  **********************
  
  Surcharging occurs when water rises above the top of the highest conduit.
  ---------------------------------------------------------------------
                                               Max. Height   Min. Depth
                                   Hours       Above Crown    Below Rim
  Node                 Type      Surcharged         Meters       Meters
  ---------------------------------------------------------------------
  CSO7                 JUNCTION        0.71          0.945        0.000
  CSO9                 JUNCTION        0.91          1.682        0.000
  CSO8                 JUNCTION        1.22          1.547        0.000
  CSO10                JUNCTION        0.73          0.560        0.000
  J4                   JUNCTION        0.69          1.243        0.457
  
  
  *********************
  Node Flooding Summary
  *********************
  
  Flooding refers to all water that overflows a node, whether it ponds or not.
  --------------------------------------------------------------------------
                                                             Total   Maximum
                                 Maximum   Time of Max       Flood    Ponded
                        Hours       Rate    Occurrence      Volume     Depth
  Node                 Flooded       CMS   days hr:min    10^6 ltr    Meters
  --------------------------------------------------------------------------
  CSO7                    0.55     0.035      0  11:31       0.027     0.000
  CSO9                    0.19     0.050      0  18:06       0.010     0.000
  CSO8                    0.72     0.467      0  11:31       0.328     0.000
  CSO10                   0.43     0.592      0  17:56       0.212     0.000
  T5                      2.77     1.133      0  17:56       0.794     0.000
  T6                      0.65     0.307      0  11:44       0.255     0.000
  T3                      1.19     0.879      0  18:19       0.861     0.000
  T1                      9.97     2.074      0  17:59       7.775     0.000
  
  
  **********************
  Storage Volume Summary
  **********************
  
  --------------------------------------------------------------------------------------------------
                         Average     Avg  Evap Exfil       Maximum     Max    Time of Max    Maximum
                          Volume    Pcnt  Pcnt  Pcnt        Volume    Pcnt     Occurrence    Outflow
  Storage Unit           1000 m3    Full  Loss  Loss       1000 m3    Full    days hr:min        CMS
  --------------------------------------------------------------------------------------------------
  T5                       0.246      49     0     0         0.500     100       0  12:10      0.039
  T4                       0.064      13     0     0         0.304      61       0  12:19      0.062
  T6                       0.170      28     0     0         0.600     100       0  11:44      0.175
  T3                       1.316      51     0     0         2.600     100       0  18:13      0.270
  T2                       0.120      12     0     0         0.602      60       0  12:01      0.108
  T1                       0.388      55     0     0         0.700     100       0  11:24      0.271
  
  
  ***********************
  Outfall Loading Summary
  ***********************
  
  -----------------------------------------------------------
                         Flow       Avg       Max       Total
                         Freq      Flow      Flow      Volume
  Outfall Node           Pcnt       CMS       CMS    10^6 ltr
  -----------------------------------------------------------
  Out_to_WWTP           99.43     0.168     0.271      14.197
  -----------------------------------------------------------
  System                99.43     0.168     0.271      14.197
  
  
  ********************
  Link Flow Summary
  ********************
  
  -----------------------------------------------------------------------------
                                 Maximum  Time of Max   Maximum    Max/    Max/
                                  |Flow|   Occurrence   |Veloc|    Full    Full
  Link                 Type          CMS  days hr:min     m/sec    Flow   Depth
  -----------------------------------------------------------------------------
  C1                   CONDUIT     0.039     0  12:57      0.76    0.01    0.12
  C6                   CONDUIT     0.071     0  11:32      1.29    1.13    0.75
  C2                   CONDUIT     0.062     0  12:21      1.28    0.07    0.23
  C9                   CONDUIT     0.126     0  11:28      1.29    0.43    0.50
  C16                  CONDUIT     0.488     0  11:26      1.79    0.05    0.15
  C3                   CONDUIT     0.190     0  18:16      2.12    0.07    0.17
  C19                  CONDUIT     0.108     0  12:03      1.06    0.04    0.31
  C11                  CONDUIT     0.283     0  12:40      1.95    0.01    0.17
  C20                  CONDUIT     2.729     0  17:56      5.81    0.09    0.22
  C22                  CONDUIT     0.202     0  18:10      1.44    0.09    0.43
  C12                  CONDUIT     0.175     0  12:23      0.93    0.01    0.29
  C17                  CONDUIT     1.119     0  11:32      3.21    0.06    0.32
  C10                  CONDUIT     0.698     0  11:27      0.94    0.07    0.59
  C13                  CONDUIT     1.207     0  11:33      0.85    0.07    0.76
  C18                  CONDUIT     0.536     0  11:27      1.41    0.02    0.55
  C23                  CONDUIT     2.345     0  17:59      1.85    0.26    0.67
  C4                   CONDUIT     1.173     0  17:56      2.05    0.28    0.68
  C7                   CONDUIT     0.205     0  11:32      0.91    0.05    0.58
  C14                  CONDUIT     0.271     0  11:26      2.08    0.02    0.09
  C5                   CONDUIT     0.081     0  11:11      1.59    1.39    1.00
  C8                   CONDUIT     0.127     0  11:28      1.92    1.60    0.86
  C15                  CONDUIT     0.486     0  11:40      3.89    1.55    0.83
  C21                  CONDUIT     0.202     0  18:09      1.99    1.16    0.69
  V4                   ORIFICE     0.062     0  12:19                      1.00
  V5                   ORIFICE     0.039     0  12:10                      1.00
  V1                   ORIFICE     0.271     0  11:24                      1.00
  V6                   ORIFICE     0.175     0  11:44                      1.00
  V3                   ORIFICE     0.190     0  18:14                      1.00
  V2                   ORIFICE     0.108     0  12:01                      1.00
  
  
  ***************************
  Flow Classification Summary
  ***************************
  
  -------------------------------------------------------------------------------------
                      Adjusted    ---------- Fraction of Time in Flow Class ---------- 
                       /Actual         Up    Down  Sub   Sup   Up    Down  Norm  Inlet 
  Conduit               Length    Dry  Dry   Dry   Crit  Crit  Crit  Crit  Ltd   Ctrl  
  -------------------------------------------------------------------------------------
  C1                      1.00   0.00  0.00  0.00  0.93  0.07  0.00  0.00  0.97  0.00
  C6                      1.00   0.00  0.00  0.00  0.04  0.96  0.00  0.00  0.00  0.00
  C2                      1.00   0.00  0.00  0.00  0.35  0.65  0.00  0.00  0.97  0.00
  C9                      1.00   0.00  0.00  0.00  1.00  0.00  0.00  0.00  1.00  0.00
  C16                     1.00   0.00  0.25  0.00  0.48  0.26  0.00  0.00  0.31  0.00
  C3                      1.00   0.00  0.00  0.00  0.04  0.96  0.00  0.00  0.12  0.00
  C19                     1.00   0.00  0.00  0.00  1.00  0.00  0.00  0.00  1.00  0.00
  C11                     1.00   0.00  0.00  0.00  0.09  0.91  0.00  0.00  1.00  0.00
  C20                     1.00   0.00  0.00  0.00  0.85  0.15  0.00  0.00  0.99  0.00
  C22                     1.00   0.00  0.00  0.00  0.96  0.04  0.00  0.00  1.00  0.00
  C12                     1.00   0.00  0.00  0.00  0.63  0.37  0.00  0.00  0.91  0.00
  C17                     1.00   0.00  0.00  0.00  0.74  0.26  0.00  0.00  0.99  0.00
  C10                     1.00   0.00  0.00  0.00  0.77  0.23  0.00  0.00  0.98  0.00
  C13                     1.00   0.00  0.00  0.00  0.76  0.24  0.00  0.00  0.42  0.00
  C18                     1.00   0.00  0.00  0.00  0.54  0.46  0.00  0.00  0.98  0.00
  C23                     1.00   0.00  0.00  0.00  0.80  0.20  0.00  0.00  0.96  0.00
  C4                      1.00   0.00  0.00  0.00  0.82  0.18  0.00  0.00  0.98  0.00
  C7                      1.00   0.00  0.00  0.00  0.70  0.30  0.00  0.00  0.85  0.00
  C14                     1.00   0.00  0.00  0.00  0.00  1.00  0.00  0.00  0.26  0.00
  C5                      1.00   0.00  0.00  0.00  0.94  0.06  0.00  0.00  0.95  0.00
  C8                      1.00   0.00  0.00  0.00  0.25  0.75  0.00  0.00  0.00  0.00
  C15                     1.00   0.25  0.00  0.00  0.00  0.75  0.00  0.00  0.00  0.00
  C21                     1.00   0.00  0.00  0.00  0.01  0.99  0.00  0.00  0.00  0.00
  
  
  *************************
  Conduit Surcharge Summary
  *************************
  
  ----------------------------------------------------------------------------
                                                           Hours        Hours 
                         --------- Hours Full --------   Above Full   Capacity
  Conduit                Both Ends  Upstream  Dnstream   Normal Flow   Limited
  ----------------------------------------------------------------------------
  C6                          0.01      0.69      0.01      0.59         0.01
  C10                         0.01      0.01      9.39      0.01         0.01
  C13                         0.01      0.01     12.42      0.01         0.01
  C18                         0.01      0.01      2.46      0.01         0.01
  C23                         0.01      0.01     12.74      0.01         0.01
  C4                          0.01      0.01     12.78      0.01         0.01
  C7                          0.01      0.01      5.79      0.01         0.01
  C5                          0.68      0.71      0.78      0.74         0.65
  C8                          0.01      0.91      0.01      0.93         0.01
  C15                         0.01      1.22      0.01      1.27         0.01
  C21                         0.01      0.73      0.01      0.68         0.01
  

  Analysis begun on:  Tue Sep 21 00:54:23 2021
  Analysis ended on:  Tue Sep 21 00:54:23 2021
  Total elapsed time: < 1 sec